# generated using pymatgen
data_X417Li192P32(S5I)32
_symmetry_space_group_name_H-M   'P 1'
_cell_length_a   20.43300000
_cell_length_b   20.43300000
_cell_length_c   20.43300000
_cell_angle_alpha   90.00000000
_cell_angle_beta   90.00000000
_cell_angle_gamma   90.00000000
_symmetry_Int_Tables_number   1
_chemical_formula_structural   X417Li192P32(S5I)32
_chemical_formula_sum   'X417 Li192 P32 S160 I32'
_cell_volume   8530.93052274
_cell_formula_units_Z   1
loop_
 _symmetry_equiv_pos_site_id
 _symmetry_equiv_pos_as_xyz
  1  'x, y, z'
loop_
 _atom_site_type_symbol
 _atom_site_label
 _atom_site_symmetry_multiplicity
 _atom_site_fract_x
 _atom_site_fract_y
 _atom_site_fract_z
 _atom_site_occupancy
  Li  Li1  1  0.103984  0.015069  0.393639  1
  Li  Li2  1  0.133980  0.042283  0.789247  1
  Li  Li3  1  0.109204  0.510699  0.384023  1
  Li  Li4  1  0.011486  0.646425  0.859964  1
  Li  Li5  1  0.612959  0.013055  0.396430  1
  Li  Li6  1  0.638486  0.014151  0.851330  1
  Li  Li7  1  0.636880  0.511886  0.354168  1
  Li  Li8  1  0.611331  0.513018  0.892551  1
  Li  Li9  1  0.396804  0.489669  0.386313  1
  Li  Li10  1  0.356297  0.488927  0.863909  1
  Li  Li11  1  0.398495  0.984410  0.396778  1
  Li  Li12  1  0.363132  0.989459  0.861384  1
  Li  Li13  1  0.893683  0.489998  0.387500  1
  Li  Li14  1  0.890016  0.490403  0.890782  1
  Li  Li15  1  0.876489  0.987924  0.372497  1
  Li  Li16  1  0.860574  0.988819  0.857092  1
  Li  Li17  1  0.396198  0.010887  0.108967  1
  Li  Li18  1  0.349145  0.102007  0.733176  1
  Li  Li19  1  0.381853  0.511766  0.103811  1
  Li  Li20  1  0.390993  0.510439  0.608887  1
  Li  Li21  1  0.856990  0.013904  0.136466  1
  Li  Li22  1  0.897065  0.006213  0.610229  1
  Li  Li23  1  0.889701  0.511656  0.108872  1
  Li  Li24  1  0.759719  0.644998  0.603949  1
  Li  Li25  1  0.143365  0.485550  0.142638  1
  Li  Li26  1  0.115946  0.489886  0.616380  1
  Li  Li27  1  0.155103  0.986861  0.149872  1
  Li  Li28  1  0.101476  0.982010  0.600209  1
  Li  Li29  1  0.613656  0.489147  0.105058  1
  Li  Li30  1  0.645134  0.489216  0.650312  1
  Li  Li31  1  0.602779  0.988257  0.106274  1
  Li  Li32  1  0.607814  0.988737  0.604097  1
  Li  Li33  1  0.396892  0.113846  0.011252  1
  Li  Li34  1  0.388990  0.011079  0.608790  1
  Li  Li35  1  0.362665  0.645220  0.009710  1
  Li  Li36  1  0.358026  0.634744  0.509251  1
  Li  Li37  1  0.859477  0.145487  0.011338  1
  Li  Li38  1  0.898808  0.104912  0.509792  1
  Li  Li39  1  0.763628  0.637263  0.102586  1
  Li  Li40  1  0.897762  0.604621  0.514485  1
  Li  Li41  1  0.388230  0.389736  0.486602  1
  Li  Li42  1  0.357597  0.354880  0.985067  1
  Li  Li43  1  0.353701  0.849528  0.481225  1
  Li  Li44  1  0.358599  0.863028  0.992159  1
  Li  Li45  1  0.893085  0.390036  0.490260  1
  Li  Li46  1  0.851787  0.349789  0.981854  1
  Li  Li47  1  0.852146  0.863790  0.488801  1
  Li  Li48  1  0.888796  0.895331  0.988244  1
  Li  Li49  1  0.142276  0.358421  0.011179  1
  Li  Li50  1  0.098248  0.392260  0.510489  1
  Li  Li51  1  0.114795  0.889136  0.012550  1
  Li  Li52  1  0.147649  0.856417  0.510000  1
  Li  Li53  1  0.641121  0.355996  0.010129  1
  Li  Li54  1  0.598472  0.406250  0.518036  1
  Li  Li55  1  0.741030  0.897587  0.145365  1
  Li  Li56  1  0.650208  0.850450  0.515557  1
  Li  Li57  1  0.139615  0.134238  0.488609  1
  Li  Li58  1  0.120151  0.044725  0.955773  1
  Li  Li59  1  0.103749  0.612259  0.485224  1
  Li  Li60  1  0.099548  0.598205  0.984924  1
  Li  Li61  1  0.549849  0.120811  0.470826  1
  Li  Li62  1  0.607121  0.104987  0.985460  1
  Li  Li63  1  0.604396  0.599837  0.482260  1
  Li  Li64  1  0.649424  0.649922  0.983488  1
  Li  Li65  1  0.012749  0.397741  0.096775  1
  Li  Li66  1  0.013367  0.353032  0.652850  1
  Li  Li67  1  0.013353  0.899372  0.112067  1
  Li  Li68  1  0.015970  0.852857  0.633244  1
  Li  Li69  1  0.513119  0.387811  0.108154  1
  Li  Li70  1  0.511283  0.356764  0.643509  1
  Li  Li71  1  0.649703  0.861695  0.014421  1
  Li  Li72  1  0.509456  0.886275  0.605553  1
  Li  Li73  1  0.488549  0.353118  0.357072  1
  Li  Li74  1  0.483042  0.396979  0.895182  1
  Li  Li75  1  0.489455  0.857592  0.355087  1
  Li  Li76  1  0.485315  0.902204  0.907312  1
  Li  Li77  1  0.983263  0.347301  0.350576  1
  Li  Li78  1  0.990139  0.390394  0.890137  1
  Li  Li79  1  0.986082  0.892308  0.402411  1
  Li  Li80  1  0.989982  0.889919  0.886592  1
  Li  Li81  1  0.010824  0.140816  0.369057  1
  Li  Li82  1  0.011865  0.131590  0.866014  1
  Li  Li83  1  0.009684  0.640131  0.348868  1
  Li  Li84  1  0.152365  0.734599  0.905344  1
  Li  Li85  1  0.516272  0.153822  0.333848  1
  Li  Li86  1  0.511093  0.128132  0.871995  1
  Li  Li87  1  0.510221  0.639192  0.358849  1
  Li  Li88  1  0.509895  0.609392  0.897376  1
  Li  Li89  1  0.491639  0.135001  0.139996  1
  Li  Li90  1  0.488578  0.138149  0.644662  1
  Li  Li91  1  0.488059  0.612380  0.107661  1
  Li  Li92  1  0.488003  0.612831  0.605352  1
  Li  Li93  1  0.985479  0.102006  0.104465  1
  Li  Li94  1  0.987084  0.144843  0.647970  1
  Li  Li95  1  0.896557  0.610315  0.008084  1
  Li  Li96  1  0.852398  0.519043  0.647502  1
  Li  Li97  1  0.105409  0.259036  0.136034  1
  Li  Li98  1  0.131958  0.259989  0.613448  1
  Li  Li99  1  0.105132  0.762560  0.136581  1
  Li  Li100  1  0.152721  0.758058  0.607405  1
  Li  Li101  1  0.603049  0.265820  0.148215  1
  Li  Li102  1  0.647222  0.265307  0.600979  1
  Li  Li103  1  0.643254  0.763453  0.118859  1
  Li  Li104  1  0.606748  0.760838  0.637519  1
  Li  Li105  1  0.392480  0.237160  0.141894  1
  Li  Li106  1  0.381094  0.125284  0.509660  1
  Li  Li107  1  0.398247  0.732894  0.152147  1
  Li  Li108  1  0.353726  0.737120  0.609921  1
  Li  Li109  1  0.902344  0.237600  0.151862  1
  Li  Li110  1  0.853767  0.232387  0.600396  1
  Li  Li111  1  0.860269  0.740711  0.106247  1
  Li  Li112  1  0.987513  0.643571  0.638005  1
  Li  Li113  1  0.350125  0.263393  0.394178  1
  Li  Li114  1  0.401591  0.266697  0.844743  1
  Li  Li115  1  0.385273  0.760589  0.349993  1
  Li  Li116  1  0.358331  0.763494  0.891661  1
  Li  Li117  1  0.847252  0.266093  0.396357  1
  Li  Li118  1  0.896761  0.266237  0.847970  1
  Li  Li119  1  0.856763  0.759774  0.393668  1
  Li  Li120  1  0.846878  0.766339  0.902557  1
  Li  Li121  1  0.146973  0.239116  0.392517  1
  Li  Li122  1  0.129230  0.205974  0.953790  1
  Li  Li123  1  0.109503  0.737507  0.353282  1
  Li  Li124  1  0.238438  0.610833  0.855869  1
  Li  Li125  1  0.642567  0.241884  0.393228  1
  Li  Li126  1  0.648146  0.237246  0.898396  1
  Li  Li127  1  0.647183  0.734756  0.397958  1
  Li  Li128  1  0.601451  0.741006  0.861821  1
  Li  Li129  1  0.385372  0.365493  0.258581  1
  Li  Li130  1  0.349945  0.393893  0.759556  1
  Li  Li131  1  0.359437  0.897561  0.257484  1
  Li  Li132  1  0.403365  0.852707  0.767880  1
  Li  Li133  1  0.857701  0.394579  0.262420  1
  Li  Li134  1  0.868583  0.392402  0.757822  1
  Li  Li135  1  0.904180  0.849448  0.266205  1
  Li  Li136  1  0.894774  0.847055  0.765920  1
  Li  Li137  1  0.353564  0.100143  0.235362  1
  Li  Li138  1  0.389896  0.237903  0.645648  1
  Li  Li139  1  0.345819  0.595338  0.231352  1
  Li  Li140  1  0.401712  0.645633  0.734421  1
  Li  Li141  1  0.854701  0.114942  0.240078  1
  Li  Li142  1  0.868786  0.113544  0.735740  1
  Li  Li143  1  0.986091  0.647451  0.148931  1
  Li  Li144  1  0.883204  0.645850  0.738682  1
  Li  Li145  1  0.107640  0.142129  0.260903  1
  Li  Li146  1  0.119039  0.206337  0.789541  1
  Li  Li147  1  0.150131  0.600382  0.261987  1
  Li  Li148  1  0.112461  0.649125  0.761782  1
  Li  Li149  1  0.660354  0.104955  0.273053  1
  Li  Li150  1  0.609117  0.149328  0.760306  1
  Li  Li151  1  0.609198  0.647554  0.258248  1
  Li  Li152  1  0.603069  0.638523  0.761544  1
  Li  Li153  1  0.107219  0.359253  0.237017  1
  Li  Li154  1  0.149733  0.394565  0.733482  1
  Li  Li155  1  0.110075  0.863208  0.240239  1
  Li  Li156  1  0.114343  0.854388  0.738326  1
  Li  Li157  1  0.643235  0.397680  0.234007  1
  Li  Li158  1  0.618488  0.364082  0.741120  1
  Li  Li159  1  0.517473  0.854589  0.146847  1
  Li  Li160  1  0.601234  0.863211  0.738101  1
  Li  Li161  1  0.262691  0.401821  0.350585  1
  Li  Li162  1  0.258315  0.353461  0.887550  1
  Li  Li163  1  0.261877  0.895435  0.356596  1
  Li  Li164  1  0.262121  0.891956  0.855512  1
  Li  Li165  1  0.761139  0.393502  0.367982  1
  Li  Li166  1  0.763379  0.394036  0.854269  1
  Li  Li167  1  0.765028  0.894638  0.350660  1
  Li  Li168  1  0.760268  0.890743  0.857471  1
  Li  Li169  1  0.236345  0.374274  0.129645  1
  Li  Li170  1  0.235209  0.356722  0.594041  1
  Li  Li171  1  0.237089  0.851989  0.107392  1
  Li  Li172  1  0.239380  0.900822  0.649645  1
  Li  Li173  1  0.740481  0.358183  0.112127  1
  Li  Li174  1  0.739317  0.377608  0.626958  1
  Li  Li175  1  0.637772  0.888656  0.241913  1
  Li  Li176  1  0.732836  0.897706  0.653726  1
  Li  Li177  1  0.265112  0.145973  0.101361  1
  Li  Li178  1  0.263017  0.142386  0.604310  1
  Li  Li179  1  0.259608  0.646241  0.104049  1
  Li  Li180  1  0.265662  0.596247  0.648650  1
  Li  Li181  1  0.758769  0.151616  0.110224  1
  Li  Li182  1  0.762297  0.104420  0.634684  1
  Li  Li183  1  0.849308  0.603476  0.230982  1
  Li  Li184  1  0.860558  0.743216  0.606858  1
  Li  Li185  1  0.234932  0.098773  0.351363  1
  Li  Li186  1  0.241087  0.129859  0.876571  1
  Li  Li187  1  0.233080  0.647011  0.395576  1
  Li  Li188  1  0.133925  0.513153  0.855798  1
  Li  Li189  1  0.714125  0.129786  0.449459  1
  Li  Li190  1  0.738760  0.115068  0.861613  1
  Li  Li191  1  0.738924  0.611945  0.359026  1
  Li  Li192  1  0.733618  0.603878  0.848660  1
  I  I193  1  0.001189  0.989130  0.001549  1
  I  I194  1  0.997499  0.000197  0.496947  1
  I  I195  1  0.991557  0.500147  0.994106  1
  I  I196  1  0.003296  0.502240  0.492491  1
  I  I197  1  0.499626  0.010371  0.004348  1
  I  I198  1  0.496872  0.000524  0.505732  1
  I  I199  1  0.503517  0.502028  0.002037  1
  I  I200  1  0.491237  0.502308  0.501776  1
  I  I201  1  0.010100  0.248752  0.247836  1
  I  I202  1  0.996296  0.244211  0.747089  1
  I  I203  1  0.009428  0.750803  0.248568  1
  I  I204  1  0.000819  0.745916  0.744563  1
  I  I205  1  0.495039  0.255553  0.241985  1
  I  I206  1  0.500607  0.247542  0.740839  1
  I  I207  1  0.499708  0.750934  0.253806  1
  I  I208  1  0.508959  0.749970  0.747859  1
  I  I209  1  0.255282  0.997034  0.253769  1
  I  I210  1  0.258493  0.995871  0.757035  1
  I  I211  1  0.244607  0.495819  0.242981  1
  I  I212  1  0.248660  0.499984  0.757017  1
  I  I213  1  0.754063  0.996140  0.249467  1
  I  I214  1  0.752461  0.003670  0.759335  1
  I  I215  1  0.749491  0.496620  0.262137  1
  I  I216  1  0.752663  0.492292  0.747542  1
  I  I217  1  0.247668  0.258196  0.997807  1
  I  I218  1  0.242478  0.242722  0.502949  1
  I  I219  1  0.259869  0.751118  0.000193  1
  I  I220  1  0.253691  0.747989  0.502764  1
  I  I221  1  0.747918  0.254068  0.004534  1
  I  I222  1  0.747789  0.253568  0.500669  1
  I  I223  1  0.748229  0.750212  0.010707  1
  I  I224  1  0.755701  0.752319  0.500286  1
  S  S225  1  0.124762  0.126590  0.374750  1
  S  S226  1  0.126217  0.124658  0.871738  1
  S  S227  1  0.122092  0.624512  0.372079  1
  S  S228  1  0.124653  0.626399  0.874207  1
  S  S229  1  0.619982  0.127605  0.380362  1
  S  S230  1  0.625129  0.126832  0.872764  1
  S  S231  1  0.624282  0.624880  0.370934  1
  S  S232  1  0.622034  0.626580  0.874176  1
  S  S233  1  0.375496  0.375487  0.373150  1
  S  S234  1  0.371415  0.375136  0.872170  1
  S  S235  1  0.375490  0.874223  0.370020  1
  S  S236  1  0.375379  0.876346  0.878607  1
  S  S237  1  0.874693  0.376957  0.376604  1
  S  S238  1  0.876614  0.377429  0.871435  1
  S  S239  1  0.875262  0.873193  0.376393  1
  S  S240  1  0.874259  0.875958  0.875882  1
  S  S241  1  0.377725  0.124353  0.124447  1
  S  S242  1  0.375705  0.125038  0.623586  1
  S  S243  1  0.373420  0.624352  0.121748  1
  S  S244  1  0.375290  0.624049  0.623306  1
  S  S245  1  0.872728  0.127484  0.125226  1
  S  S246  1  0.876154  0.119565  0.622218  1
  S  S247  1  0.875771  0.625831  0.120773  1
  S  S248  1  0.873288  0.630481  0.624820  1
  S  S249  1  0.122275  0.373185  0.123525  1
  S  S250  1  0.123838  0.374936  0.622165  1
  S  S251  1  0.125725  0.875877  0.126449  1
  S  S252  1  0.129438  0.870618  0.624321  1
  S  S253  1  0.626408  0.376376  0.122079  1
  S  S254  1  0.624541  0.376679  0.627309  1
  S  S255  1  0.628903  0.877032  0.127882  1
  S  S256  1  0.622326  0.875599  0.625212  1
  S  S257  1  0.053104  0.440013  0.306700  1
  S  S258  1  0.056913  0.441323  0.802239  1
  S  S259  1  0.053888  0.942665  0.311211  1
  S  S260  1  0.063075  0.940947  0.806172  1
  S  S261  1  0.554539  0.441578  0.304074  1
  S  S262  1  0.556608  0.442635  0.810082  1
  S  S263  1  0.560213  0.944109  0.313343  1
  S  S264  1  0.552426  0.942251  0.812162  1
  S  S265  1  0.443194  0.059263  0.309512  1
  S  S266  1  0.439909  0.061247  0.803778  1
  S  S267  1  0.440105  0.560413  0.301103  1
  S  S268  1  0.440609  0.558774  0.809748  1
  S  S269  1  0.942114  0.062825  0.306799  1
  S  S270  1  0.944096  0.053029  0.805046  1
  S  S271  1  0.938134  0.558042  0.300683  1
  S  S272  1  0.942082  0.561321  0.805760  1
  S  S273  1  0.440904  0.444499  0.185547  1
  S  S274  1  0.439662  0.440692  0.694247  1
  S  S275  1  0.449478  0.943188  0.192501  1
  S  S276  1  0.442141  0.940795  0.691857  1
  S  S277  1  0.941778  0.439131  0.187422  1
  S  S278  1  0.944183  0.448695  0.684922  1
  S  S279  1  0.938857  0.943139  0.194509  1
  S  S280  1  0.943698  0.932542  0.691955  1
  S  S281  1  0.059016  0.055275  0.190690  1
  S  S282  1  0.059115  0.052973  0.689619  1
  S  S283  1  0.057984  0.556690  0.189824  1
  S  S284  1  0.060748  0.563480  0.692255  1
  S  S285  1  0.565204  0.060649  0.198843  1
  S  S286  1  0.561133  0.056263  0.693538  1
  S  S287  1  0.559866  0.558765  0.188973  1
  S  S288  1  0.554403  0.557000  0.690917  1
  S  S289  1  0.308621  0.056670  0.441403  1
  S  S290  1  0.312113  0.058956  0.945324  1
  S  S291  1  0.304889  0.556336  0.435935  1
  S  S292  1  0.305766  0.560490  0.942622  1
  S  S293  1  0.808593  0.055065  0.443783  1
  S  S294  1  0.808946  0.060530  0.941819  1
  S  S295  1  0.808389  0.560339  0.443528  1
  S  S296  1  0.806544  0.560619  0.938179  1
  S  S297  1  0.303922  0.439324  0.053850  1
  S  S298  1  0.306231  0.443838  0.556123  1
  S  S299  1  0.307762  0.942546  0.063199  1
  S  S300  1  0.308740  0.937669  0.555234  1
  S  S301  1  0.809181  0.441558  0.053523  1
  S  S302  1  0.809240  0.446221  0.558971  1
  S  S303  1  0.805041  0.943012  0.056034  1
  S  S304  1  0.805334  0.941282  0.565585  1
  S  S305  1  0.189160  0.439896  0.441899  1
  S  S306  1  0.189244  0.442992  0.937703  1
  S  S307  1  0.190842  0.943013  0.440513  1
  S  S308  1  0.193833  0.945805  0.941951  1
  S  S309  1  0.687974  0.446064  0.445133  1
  S  S310  1  0.692751  0.440629  0.939065  1
  S  S311  1  0.695171  0.936827  0.443203  1
  S  S312  1  0.689667  0.946722  0.939872  1
  S  S313  1  0.191356  0.059524  0.056248  1
  S  S314  1  0.193155  0.053903  0.560511  1
  S  S315  1  0.188868  0.557450  0.056521  1
  S  S316  1  0.191474  0.560803  0.555003  1
  S  S317  1  0.691469  0.060808  0.058559  1
  S  S318  1  0.689424  0.059171  0.551697  1
  S  S319  1  0.691837  0.558707  0.052488  1
  S  S320  1  0.689700  0.559578  0.559716  1
  S  S321  1  0.441638  0.309005  0.056348  1
  S  S322  1  0.437703  0.309411  0.558856  1
  S  S323  1  0.442935  0.808352  0.063889  1
  S  S324  1  0.440284  0.804555  0.555504  1
  S  S325  1  0.939566  0.308069  0.057387  1
  S  S326  1  0.942847  0.307575  0.561794  1
  S  S327  1  0.944449  0.811645  0.058171  1
  S  S328  1  0.942451  0.810291  0.551870  1
  S  S329  1  0.055904  0.306408  0.440582  1
  S  S330  1  0.058367  0.305440  0.940532  1
  S  S331  1  0.061284  0.807150  0.439493  1
  S  S332  1  0.060598  0.807608  0.941205  1
  S  S333  1  0.558680  0.314578  0.446605  1
  S  S334  1  0.557391  0.309907  0.938716  1
  S  S335  1  0.559276  0.807939  0.441267  1
  S  S336  1  0.559959  0.814495  0.947606  1
  S  S337  1  0.447626  0.195046  0.438930  1
  S  S338  1  0.440500  0.196611  0.938466  1
  S  S339  1  0.439618  0.692516  0.438008  1
  S  S340  1  0.445599  0.697552  0.942766  1
  S  S341  1  0.935857  0.195882  0.442552  1
  S  S342  1  0.937914  0.195374  0.937917  1
  S  S343  1  0.944366  0.690090  0.439998  1
  S  S344  1  0.939090  0.697641  0.940014  1
  S  S345  1  0.055705  0.188481  0.051418  1
  S  S346  1  0.054748  0.188473  0.556482  1
  S  S347  1  0.055331  0.689711  0.055637  1
  S  S348  1  0.059329  0.694586  0.558069  1
  S  S349  1  0.558731  0.194176  0.055876  1
  S  S350  1  0.556678  0.196352  0.560293  1
  S  S351  1  0.561899  0.694419  0.059377  1
  S  S352  1  0.559922  0.689957  0.551875  1
  S  S353  1  0.308567  0.305052  0.191006  1
  S  S354  1  0.305070  0.311075  0.685233  1
  S  S355  1  0.309785  0.805498  0.191650  1
  S  S356  1  0.311956  0.810558  0.695705  1
  S  S357  1  0.809751  0.306976  0.194932  1
  S  S358  1  0.812114  0.306508  0.690141  1
  S  S359  1  0.811909  0.809908  0.193970  1
  S  S360  1  0.805191  0.809544  0.693673  1
  S  S361  1  0.306753  0.188998  0.307831  1
  S  S362  1  0.312531  0.195087  0.802112  1
  S  S363  1  0.304720  0.686019  0.304481  1
  S  S364  1  0.315053  0.690698  0.807731  1
  S  S365  1  0.799777  0.191592  0.314229  1
  S  S366  1  0.811073  0.191165  0.806292  1
  S  S367  1  0.813307  0.690863  0.306913  1
  S  S368  1  0.803491  0.695683  0.811869  1
  S  S369  1  0.192545  0.190272  0.189918  1
  S  S370  1  0.192321  0.188828  0.691412  1
  S  S371  1  0.189300  0.692635  0.189652  1
  S  S372  1  0.199685  0.689502  0.692336  1
  S  S373  1  0.688681  0.194900  0.195940  1
  S  S374  1  0.695423  0.191826  0.688128  1
  S  S375  1  0.698585  0.689133  0.191713  1
  S  S376  1  0.689716  0.691144  0.692837  1
  S  S377  1  0.193575  0.308519  0.306987  1
  S  S378  1  0.189461  0.304364  0.803508  1
  S  S379  1  0.193989  0.807548  0.307750  1
  S  S380  1  0.194581  0.802912  0.811112  1
  S  S381  1  0.690909  0.313815  0.308687  1
  S  S382  1  0.695172  0.304940  0.808276  1
  S  S383  1  0.694886  0.805271  0.309260  1
  S  S384  1  0.686876  0.810378  0.807134  1
  P  P385  1  0.998910  0.001412  0.250649  1
  P  P386  1  0.001672  0.993826  0.746739  1
  P  P387  1  0.998420  0.498459  0.245829  1
  P  P388  1  0.000597  0.504055  0.747168  1
  P  P389  1  0.504035  0.002301  0.253186  1
  P  P390  1  0.499010  0.000369  0.749684  1
  P  P391  1  0.499093  0.501448  0.244939  1
  P  P392  1  0.497712  0.499699  0.751512  1
  P  P393  1  0.252455  0.000674  0.002346  1
  P  P394  1  0.250860  0.998297  0.499714  1
  P  P395  1  0.246565  0.500136  0.997583  1
  P  P396  1  0.247516  0.500501  0.496885  1
  P  P397  1  0.748422  0.003648  0.998696  1
  P  P398  1  0.750921  0.996933  0.501864  1
  P  P399  1  0.750984  0.499923  0.996173  1
  P  P400  1  0.749166  0.502920  0.501215  1
  P  P401  1  0.996929  0.250651  0.998359  1
  P  P402  1  0.997943  0.249959  0.500453  1
  P  P403  1  0.000060  0.752037  0.999244  1
  P  P404  1  0.001615  0.750039  0.496804  1
  P  P405  1  0.500325  0.251691  0.997843  1
  P  P406  1  0.499874  0.255039  0.502031  1
  P  P407  1  0.502662  0.754095  0.004025  1
  P  P408  1  0.499510  0.748740  0.496300  1
  P  P409  1  0.249676  0.247778  0.249480  1
  P  P410  1  0.250914  0.250657  0.744742  1
  P  P411  1  0.249310  0.748360  0.248163  1
  P  P412  1  0.255403  0.749164  0.751483  1
  P  P413  1  0.748799  0.251904  0.253736  1
  P  P414  1  0.753096  0.248830  0.747806  1
  P  P415  1  0.754515  0.749592  0.250099  1
  P  P416  1  0.745828  0.751359  0.750723  1
  X0+  X417  1  0.487805  0.341463  0.341463  1
  X0+  X418  1  0.487805  0.365854  0.365854  1
  X0+  X419  1  0.487805  0.390244  0.390244  1
  X0+  X420  1  0.341463  0.487805  0.341463  1
  X0+  X421  1  0.365854  0.487805  0.365854  1
  X0+  X422  1  0.390244  0.487805  0.390244  1
  X0+  X423  1  0.365854  0.365854  0.487805  1
  X0+  X424  1  0.390244  0.390244  0.487805  1
  X0+  X425  1  0.341463  0.341463  0.487805  1
  X0+  X426  1  0.353659  0.390244  0.268293  1
  X0+  X427  1  0.390244  0.353659  0.268293  1
  X0+  X428  1  0.268293  0.353659  0.390244  1
  X0+  X429  1  0.268293  0.390244  0.353659  1
  X0+  X430  1  0.353659  0.268293  0.390244  1
  X0+  X431  1  0.390244  0.268293  0.353659  1
  X0+  X432  1  0.357724  0.243902  0.105691  1
  X0+  X433  1  0.390244  0.243902  0.146341  1
  X0+  X434  1  0.357724  0.105691  0.243902  1
  X0+  X435  1  0.390244  0.146341  0.243902  1
  X0+  X436  1  0.487805  0.109756  0.097561  1
  X0+  X437  1  0.487805  0.146341  0.146341  1
  X0+  X438  1  0.390244  0.097561  0.012195  1
  X0+  X439  1  0.341463  0.146341  0.024390  1
  X0+  X440  1  0.365854  0.146341  0.000000  1
  X0+  X441  1  0.268293  0.097561  0.146341  1
  X0+  X442  1  0.268293  0.146341  0.097561  1
  X0+  X443  1  0.390244  0.012195  0.097561  1
  X0+  X444  1  0.341463  0.024390  0.146341  1
  X0+  X445  1  0.243902  0.097561  0.341463  1
  X0+  X446  1  0.243902  0.121951  0.365854  1
  X0+  X447  1  0.243902  0.146341  0.390244  1
  X0+  X448  1  0.105691  0.243902  0.357724  1
  X0+  X449  1  0.146341  0.243902  0.390244  1
  X0+  X450  1  0.097561  0.097561  0.487805  1
  X0+  X451  1  0.146341  0.146341  0.487805  1
  X0+  X452  1  0.146341  0.000000  0.365854  1
  X0+  X453  1  0.146341  0.024390  0.341463  1
  X0+  X454  1  0.097561  0.024390  0.390244  1
  X0+  X455  1  0.008130  0.105691  0.390244  1
  X0+  X456  1  0.000000  0.146341  0.365854  1
  X0+  X457  1  0.024390  0.146341  0.341463  1
  X0+  X458  1  0.097561  0.146341  0.268293  1
  X0+  X459  1  0.146341  0.097561  0.268293  1
  X0+  X460  1  0.243902  0.357724  0.105691  1
  X0+  X461  1  0.243902  0.390244  0.146341  1
  X0+  X462  1  0.105691  0.357724  0.243902  1
  X0+  X463  1  0.146341  0.390244  0.243902  1
  X0+  X464  1  0.097561  0.487805  0.097561  1
  X0+  X465  1  0.146341  0.487805  0.146341  1
  X0+  X466  1  0.105691  0.390244  0.008130  1
  X0+  X467  1  0.146341  0.365854  0.000000  1
  X0+  X468  1  0.146341  0.341463  0.024390  1
  X0+  X469  1  0.012195  0.390244  0.097561  1
  X0+  X470  1  0.000000  0.365854  0.146341  1
  X0+  X471  1  0.024390  0.341463  0.146341  1
  X0+  X472  1  0.109756  0.268293  0.146341  1
  X0+  X473  1  0.146341  0.268293  0.097561  1
  X0+  X474  1  0.756098  0.353659  0.390244  1
  X0+  X475  1  0.756098  0.390244  0.353659  1
  X0+  X476  1  0.853659  0.487805  0.353659  1
  X0+  X477  1  0.890244  0.487805  0.390244  1
  X0+  X478  1  0.853659  0.353659  0.487805  1
  X0+  X479  1  0.890244  0.390244  0.487805  1
  X0+  X480  1  0.894309  0.357724  0.268293  1
  X0+  X481  1  0.853659  0.390244  0.268293  1
  X0+  X482  1  -0.012195  0.390244  0.390244  1
  X0+  X483  1  0.975610  0.341463  0.341463  1
  X0+  X484  1  0.975610  0.365854  0.365854  1
  X0+  X485  1  0.853659  0.268293  0.390244  1
  X0+  X486  1  0.878049  0.268293  0.365854  1
  X0+  X487  1  0.902439  0.268293  0.341463  1
  X0+  X488  1  0.609756  0.243902  0.353659  1
  X0+  X489  1  0.634146  0.243902  0.390244  1
  X0+  X490  1  0.646341  0.146341  0.487805  1
  X0+  X491  1  0.609756  0.109756  0.487805  1
  X0+  X492  1  0.609756  0.012195  0.390244  1
  X0+  X493  1  0.634146  0.000000  0.365854  1
  X0+  X494  1  0.512195  0.146341  0.353659  1
  X0+  X495  1  0.512195  0.109756  0.390244  1
  X0+  X496  1  0.731707  0.105691  0.357724  1
  X0+  X497  1  0.731707  0.146341  0.390244  1
  X0+  X498  1  0.642276  0.105691  0.268293  1
  X0+  X499  1  0.609756  0.146341  0.268293  1
  X0+  X500  1  0.609756  0.353659  0.243902  1
  X0+  X501  1  0.634146  0.390244  0.243902  1
  X0+  X502  1  0.646341  0.487805  0.146341  1
  X0+  X503  1  0.609756  0.487805  0.109756  1
  X0+  X504  1  0.609756  0.390244  0.012195  1
  X0+  X505  1  0.634146  0.365854  0.000000  1
  X0+  X506  1  0.512195  0.353659  0.146341  1
  X0+  X507  1  0.512195  0.390244  0.097561  1
  X0+  X508  1  0.731707  0.357724  0.105691  1
  X0+  X509  1  0.731707  0.390244  0.146341  1
  X0+  X510  1  0.642276  0.268293  0.105691  1
  X0+  X511  1  0.609756  0.268293  0.146341  1
  X0+  X512  1  0.878049  0.878049  0.487805  1
  X0+  X513  1  0.902439  0.902439  0.487805  1
  X0+  X514  1  0.853659  0.853659  0.487805  1
  X0+  X515  1  0.756098  0.878049  0.365854  1
  X0+  X516  1  0.756098  0.902439  0.341463  1
  X0+  X517  1  0.756098  0.853659  0.390244  1
  X0+  X518  1  0.853659  0.756098  0.390244  1
  X0+  X519  1  0.878049  0.756098  0.365854  1
  X0+  X520  1  0.902439  0.756098  0.341463  1
  X0+  X521  1  0.853659  0.890244  0.268293  1
  X0+  X522  1  0.890244  0.853659  0.268293  1
  X0+  X523  1  0.975610  0.853659  0.353659  1
  X0+  X524  1  0.975610  0.890244  0.390244  1
  X0+  X525  1  0.853659  0.975610  0.353659  1
  X0+  X526  1  0.890244  0.975610  0.390244  1
  X0+  X527  1  0.609756  0.609756  0.487805  1
  X0+  X528  1  0.634146  0.634146  0.487805  1
  X0+  X529  1  0.731707  0.646341  0.390244  1
  X0+  X530  1  0.731707  0.609756  0.353659  1
  X0+  X531  1  0.634146  0.512195  0.353659  1
  X0+  X532  1  0.609756  0.512195  0.390244  1
  X0+  X533  1  0.512195  0.642276  0.349593  1
  X0+  X534  1  0.512195  0.609756  0.390244  1
  X0+  X535  1  0.609756  0.731707  0.353659  1
  X0+  X536  1  0.634146  0.731707  0.390244  1
  X0+  X537  1  0.609756  0.634146  0.268293  1
  X0+  X538  1  0.634146  0.609756  0.268293  1
  X0+  X539  1  0.353659  0.756098  0.390244  1
  X0+  X540  1  0.390244  0.756098  0.353659  1
  X0+  X541  1  0.487805  0.853659  0.353659  1
  X0+  X542  1  0.487805  0.890244  0.390244  1
  X0+  X543  1  0.353659  0.853659  0.487805  1
  X0+  X544  1  0.390244  0.890244  0.487805  1
  X0+  X545  1  0.341463  0.902439  0.268293  1
  X0+  X546  1  0.365854  0.878049  0.268293  1
  X0+  X547  1  0.390244  0.853659  0.268293  1
  X0+  X548  1  0.390244  -0.012195  0.390244  1
  X0+  X549  1  0.341463  0.975610  0.341463  1
  X0+  X550  1  0.365854  0.975610  0.365854  1
  X0+  X551  1  0.268293  0.853659  0.390244  1
  X0+  X552  1  0.268293  0.878049  0.365854  1
  X0+  X553  1  0.268293  0.902439  0.341463  1
  X0+  X554  1  0.365854  0.609756  0.243902  1
  X0+  X555  1  0.390244  0.634146  0.243902  1
  X0+  X556  1  0.487805  0.646341  0.146341  1
  X0+  X557  1  0.487805  0.609756  0.109756  1
  X0+  X558  1  0.390244  0.609756  0.012195  1
  X0+  X559  1  0.365854  0.634146  0.000000  1
  X0+  X560  1  0.353659  0.512195  0.146341  1
  X0+  X561  1  0.390244  0.512195  0.097561  1
  X0+  X562  1  0.268293  0.634146  0.109756  1
  X0+  X563  1  0.268293  0.609756  0.146341  1
  X0+  X564  1  0.353659  0.731707  0.097561  1
  X0+  X565  1  0.390244  0.731707  0.146341  1
  X0+  X566  1  0.243902  0.609756  0.353659  1
  X0+  X567  1  0.243902  0.634146  0.390244  1
  X0+  X568  1  0.146341  0.646341  0.487805  1
  X0+  X569  1  0.109756  0.609756  0.487805  1
  X0+  X570  1  0.012195  0.609756  0.390244  1
  X0+  X571  1  0.000000  0.634146  0.365854  1
  X0+  X572  1  0.146341  0.512195  0.353659  1
  X0+  X573  1  0.109756  0.512195  0.390244  1
  X0+  X574  1  0.105691  0.731707  0.357724  1
  X0+  X575  1  0.146341  0.731707  0.390244  1
  X0+  X576  1  0.105691  0.642276  0.268293  1
  X0+  X577  1  0.146341  0.609756  0.268293  1
  X0+  X578  1  0.609756  0.487805  0.609756  1
  X0+  X579  1  0.634146  0.487805  0.634146  1
  X0+  X580  1  0.609756  0.353659  0.731707  1
  X0+  X581  1  0.634146  0.390244  0.731707  1
  X0+  X582  1  0.512195  0.353659  0.634146  1
  X0+  X583  1  0.512195  0.390244  0.597561  1
  X0+  X584  1  0.609756  0.390244  0.512195  1
  X0+  X585  1  0.634146  0.365854  0.512195  1
  X0+  X586  1  0.731707  0.390244  0.646341  1
  X0+  X587  1  0.731707  0.353659  0.609756  1
  X0+  X588  1  0.609756  0.268293  0.634146  1
  X0+  X589  1  0.634146  0.268293  0.609756  1
  X0+  X590  1  0.878049  0.487805  0.878049  1
  X0+  X591  1  0.902439  0.487805  0.902439  1
  X0+  X592  1  0.853659  0.487805  0.853659  1
  X0+  X593  1  0.756098  0.341463  0.902439  1
  X0+  X594  1  0.756098  0.365854  0.878049  1
  X0+  X595  1  0.756098  0.390244  0.853659  1
  X0+  X596  1  0.894309  0.357724  0.756098  1
  X0+  X597  1  0.853659  0.390244  0.756098  1
  X0+  X598  1  0.853659  0.268293  0.890244  1
  X0+  X599  1  0.890244  0.268293  0.853659  1
  X0+  X600  1  0.975610  0.353659  0.853659  1
  X0+  X601  1  -0.016260  0.390244  0.886179  1
  X0+  X602  1  0.853659  0.353659  0.975610  1
  X0+  X603  1  0.890244  0.390244  0.975610  1
  X0+  X604  1  0.853659  0.609756  0.243902  1
  X0+  X605  1  0.878049  0.634146  0.243902  1
  X0+  X606  1  0.756098  0.646341  0.097561  1
  X0+  X607  1  0.756098  0.609756  0.146341  1
  X0+  X608  1  0.853659  0.512195  0.146341  1
  X0+  X609  1  0.902439  0.512195  0.097561  1
  X0+  X610  1  0.890244  0.731707  0.146341  1
  X0+  X611  1  0.853659  0.731707  0.097561  1
  X0+  X612  1  0.894309  0.609756  0.008130  1
  X0+  X613  1  0.853659  0.634146  0.000000  1
  X0+  X614  1  0.975610  0.646341  0.146341  1
  X0+  X615  1  0.975610  0.609756  0.097561  1
  X0+  X616  1  0.756098  0.609756  0.634146  1
  X0+  X617  1  0.756098  0.634146  0.609756  1
  X0+  X618  1  0.890244  0.731707  0.634146  1
  X0+  X619  1  0.853659  0.731707  0.609756  1
  X0+  X620  1  0.890244  0.634146  0.731707  1
  X0+  X621  1  0.853659  0.609756  0.731707  1
  X0+  X622  1  0.853659  0.646341  0.512195  1
  X0+  X623  1  0.890244  0.609756  0.512195  1
  X0+  X624  1  0.890244  0.512195  0.609756  1
  X0+  X625  1  0.853659  0.512195  0.634146  1
  X0+  X626  1  -0.012195  0.609756  0.609756  1
  X0+  X627  1  0.975610  0.634146  0.634146  1
  X0+  X628  1  0.853659  0.243902  0.109756  1
  X0+  X629  1  0.890244  0.243902  0.146341  1
  X0+  X630  1  0.853659  0.109756  0.243902  1
  X0+  X631  1  0.890244  0.146341  0.243902  1
  X0+  X632  1  0.756098  0.097561  0.146341  1
  X0+  X633  1  0.756098  0.146341  0.097561  1
  X0+  X634  1  0.853659  0.146341  0.012195  1
  X0+  X635  1  0.902439  0.097561  0.024390  1
  X0+  X636  1  0.853659  0.012195  0.146341  1
  X0+  X637  1  0.878049  0.000000  0.097561  1
  X0+  X638  1  0.902439  0.024390  0.097561  1
  X0+  X639  1  0.975610  0.097561  0.097561  1
  X0+  X640  1  0.975610  0.146341  0.146341  1
  X0+  X641  1  0.634146  0.890244  0.243902  1
  X0+  X642  1  0.609756  0.853659  0.243902  1
  X0+  X643  1  0.634146  0.756098  0.109756  1
  X0+  X644  1  0.609756  0.756098  0.146341  1
  X0+  X645  1  0.512195  0.886179  0.105691  1
  X0+  X646  1  0.512195  0.853659  0.146341  1
  X0+  X647  1  0.731707  0.890244  0.146341  1
  X0+  X648  1  0.731707  0.853659  0.097561  1
  X0+  X649  1  0.642276  0.853659  0.016260  1
  X0+  X650  1  0.609756  0.878049  0.000000  1
  X0+  X651  1  0.609756  0.902439  0.024390  1
  X0+  X652  1  0.634146  -0.012195  0.146341  1
  X0+  X653  1  0.609756  0.975610  0.097561  1
  X0+  X654  1  0.609756  0.646341  0.756098  1
  X0+  X655  1  0.646341  0.609756  0.756098  1
  X0+  X656  1  0.731707  0.642276  0.894309  1
  X0+  X657  1  0.731707  0.609756  0.853659  1
  X0+  X658  1  0.646341  0.512195  0.853659  1
  X0+  X659  1  0.609756  0.512195  0.890244  1
  X0+  X660  1  0.512195  0.609756  0.890244  1
  X0+  X661  1  0.512195  0.634146  0.853659  1
  X0+  X662  1  0.634146  0.731707  0.890244  1
  X0+  X663  1  0.609756  0.731707  0.853659  1
  X0+  X664  1  0.609756  0.609756  -0.012195  1
  X0+  X665  1  0.634146  0.634146  0.975610  1
  X0+  X666  1  0.609756  0.756098  0.634146  1
  X0+  X667  1  0.634146  0.756098  0.609756  1
  X0+  X668  1  0.731707  0.890244  0.634146  1
  X0+  X669  1  0.731707  0.853659  0.609756  1
  X0+  X670  1  0.634146  0.890244  0.731707  1
  X0+  X671  1  0.609756  0.853659  0.731707  1
  X0+  X672  1  0.646341  0.853659  0.512195  1
  X0+  X673  1  0.609756  0.890244  0.512195  1
  X0+  X674  1  0.634146  -0.012195  0.634146  1
  X0+  X675  1  0.609756  -0.012195  0.609756  1
  X0+  X676  1  0.512195  0.853659  0.646341  1
  X0+  X677  1  0.512195  0.890244  0.609756  1
  X0+  X678  1  0.487805  0.609756  0.609756  1
  X0+  X679  1  0.487805  0.634146  0.634146  1
  X0+  X680  1  0.365854  0.634146  0.512195  1
  X0+  X681  1  0.390244  0.609756  0.512195  1
  X0+  X682  1  0.353659  0.512195  0.634146  1
  X0+  X683  1  0.390244  0.512195  0.609756  1
  X0+  X684  1  0.390244  0.646341  0.731707  1
  X0+  X685  1  0.353659  0.609756  0.731707  1
  X0+  X686  1  0.353659  0.731707  0.609756  1
  X0+  X687  1  0.390244  0.731707  0.634146  1
  X0+  X688  1  0.268293  0.646341  0.609756  1
  X0+  X689  1  0.268293  0.609756  0.634146  1
  X0+  X690  1  0.243902  0.353659  0.609756  1
  X0+  X691  1  0.243902  0.390244  0.634146  1
  X0+  X692  1  0.146341  0.487805  0.646341  1
  X0+  X693  1  0.109756  0.487805  0.609756  1
  X0+  X694  1  0.012195  0.390244  0.609756  1
  X0+  X695  1  0.000000  0.365854  0.634146  1
  X0+  X696  1  0.146341  0.353659  0.512195  1
  X0+  X697  1  0.109756  0.390244  0.512195  1
  X0+  X698  1  0.105691  0.357724  0.731707  1
  X0+  X699  1  0.146341  0.390244  0.731707  1
  X0+  X700  1  0.109756  0.268293  0.634146  1
  X0+  X701  1  0.146341  0.268293  0.609756  1
  X0+  X702  1  0.390244  0.353659  0.756098  1
  X0+  X703  1  0.353659  0.390244  0.756098  1
  X0+  X704  1  0.487805  0.353659  0.853659  1
  X0+  X705  1  0.487805  0.390244  0.890244  1
  X0+  X706  1  0.353659  0.487805  0.853659  1
  X0+  X707  1  0.390244  0.487805  0.890244  1
  X0+  X708  1  0.341463  0.268293  0.902439  1
  X0+  X709  1  0.365854  0.268293  0.878049  1
  X0+  X710  1  0.390244  0.268293  0.853659  1
  X0+  X711  1  0.341463  0.341463  0.975610  1
  X0+  X712  1  0.365854  0.365854  0.975610  1
  X0+  X713  1  0.390244  0.390244  0.975610  1
  X0+  X714  1  0.268293  0.365854  0.878049  1
  X0+  X715  1  0.268293  0.390244  0.853659  1
  X0+  X716  1  0.268293  0.341463  0.902439  1
  X0+  X717  1  0.390244  0.243902  0.646341  1
  X0+  X718  1  0.353659  0.243902  0.609756  1
  X0+  X719  1  0.487805  0.109756  0.609756  1
  X0+  X720  1  0.487805  0.146341  0.634146  1
  X0+  X721  1  0.390244  0.012195  0.609756  1
  X0+  X722  1  0.365854  0.000000  0.634146  1
  X0+  X723  1  0.353659  0.146341  0.512195  1
  X0+  X724  1  0.390244  0.109756  0.512195  1
  X0+  X725  1  0.268293  0.109756  0.634146  1
  X0+  X726  1  0.268293  0.146341  0.609756  1
  X0+  X727  1  0.353659  0.097561  0.731707  1
  X0+  X728  1  0.390244  0.146341  0.731707  1
  X0+  X729  1  0.243902  0.853659  0.109756  1
  X0+  X730  1  0.243902  0.890244  0.146341  1
  X0+  X731  1  0.109756  0.853659  0.243902  1
  X0+  X732  1  0.146341  0.890244  0.243902  1
  X0+  X733  1  0.097561  0.756098  0.146341  1
  X0+  X734  1  0.146341  0.756098  0.097561  1
  X0+  X735  1  0.012195  0.853659  0.146341  1
  X0+  X736  1  0.024390  0.902439  0.097561  1
  X0+  X737  1  0.097561  0.975610  0.097561  1
  X0+  X738  1  0.146341  0.975610  0.146341  1
  X0+  X739  1  0.146341  0.853659  0.012195  1
  X0+  X740  1  0.097561  0.902439  0.024390  1
  X0+  X741  1  0.890244  0.243902  0.634146  1
  X0+  X742  1  0.853659  0.243902  0.609756  1
  X0+  X743  1  0.756098  0.097561  0.646341  1
  X0+  X744  1  0.756098  0.146341  0.609756  1
  X0+  X745  1  0.853659  0.109756  0.731707  1
  X0+  X746  1  0.890244  0.146341  0.731707  1
  X0+  X747  1  0.878049  0.121951  0.512195  1
  X0+  X748  1  0.902439  0.097561  0.512195  1
  X0+  X749  1  0.853659  0.146341  0.512195  1
  X0+  X750  1  0.853659  0.012195  0.634146  1
  X0+  X751  1  0.878049  0.000000  0.609756  1
  X0+  X752  1  0.902439  0.024390  0.609756  1
  X0+  X753  1  -0.012195  0.146341  0.634146  1
  X0+  X754  1  0.975610  0.097561  0.609756  1
  X0+  X755  1  0.634146  0.243902  0.890244  1
  X0+  X756  1  0.609756  0.243902  0.853659  1
  X0+  X757  1  0.642276  0.105691  0.756098  1
  X0+  X758  1  0.609756  0.146341  0.756098  1
  X0+  X759  1  0.512195  0.105691  0.886179  1
  X0+  X760  1  0.512195  0.146341  0.853659  1
  X0+  X761  1  0.731707  0.109756  0.853659  1
  X0+  X762  1  0.731707  0.146341  0.890244  1
  X0+  X763  1  0.642276  0.016260  0.853659  1
  X0+  X764  1  0.609756  0.000000  0.878049  1
  X0+  X765  1  0.609756  0.024390  0.902439  1
  X0+  X766  1  0.609756  0.097561  0.975610  1
  X0+  X767  1  0.634146  0.146341  0.975610  1
  X0+  X768  1  0.243902  0.146341  0.890244  1
  X0+  X769  1  0.243902  0.097561  0.853659  1
  X0+  X770  1  0.146341  0.243902  0.890244  1
  X0+  X771  1  0.097561  0.243902  0.853659  1
  X0+  X772  1  0.126829  0.126829  0.756098  1
  X0+  X773  1  0.012195  0.146341  0.853659  1
  X0+  X774  1  0.024390  0.097561  0.902439  1
  X0+  X775  1  0.097561  0.097561  0.975610  1
  X0+  X776  1  0.146341  0.146341  0.975610  1
  X0+  X777  1  0.146341  0.012195  0.853659  1
  X0+  X778  1  0.097561  0.024390  0.902439  1
  X0+  X779  1  0.243902  0.890244  0.634146  1
  X0+  X780  1  0.243902  0.853659  0.609756  1
  X0+  X781  1  0.109756  0.756098  0.634146  1
  X0+  X782  1  0.146341  0.756098  0.609756  1
  X0+  X783  1  0.109756  0.853659  0.731707  1
  X0+  X784  1  0.146341  0.890244  0.731707  1
  X0+  X785  1  0.105691  0.886179  0.512195  1
  X0+  X786  1  0.146341  0.853659  0.512195  1
  X0+  X787  1  0.012195  0.853659  0.634146  1
  X0+  X788  1  0.000000  0.878049  0.609756  1
  X0+  X789  1  0.024390  0.902439  0.609756  1
  X0+  X790  1  0.146341  -0.012195  0.634146  1
  X0+  X791  1  0.097561  0.975610  0.609756  1
  X0+  X792  1  0.853659  0.890244  0.756098  1
  X0+  X793  1  0.890244  0.853659  0.756098  1
  X0+  X794  1  0.853659  0.756098  0.890244  1
  X0+  X795  1  0.890244  0.756098  0.853659  1
  X0+  X796  1  0.756098  0.853659  0.890244  1
  X0+  X797  1  0.756098  0.890244  0.853659  1
  X0+  X798  1  0.853659  -0.012195  0.853659  1
  X0+  X799  1  0.902439  0.975610  0.902439  1
  X0+  X800  1  0.878049  0.878049  0.975610  1
  X0+  X801  1  0.902439  0.902439  0.975610  1
  X0+  X802  1  0.853659  0.853659  0.975610  1
  X0+  X803  1  -0.012195  0.853659  0.853659  1
  X0+  X804  1  0.975610  0.902439  0.902439  1
  X0+  X805  1  0.487805  0.878049  0.878049  1
  X0+  X806  1  0.487805  0.902439  0.902439  1
  X0+  X807  1  0.487805  0.853659  0.853659  1
  X0+  X808  1  0.341463  0.902439  0.756098  1
  X0+  X809  1  0.365854  0.878049  0.756098  1
  X0+  X810  1  0.390244  0.853659  0.756098  1
  X0+  X811  1  0.341463  0.756098  0.902439  1
  X0+  X812  1  0.365854  0.756098  0.878049  1
  X0+  X813  1  0.390244  0.756098  0.853659  1
  X0+  X814  1  0.268293  0.853659  0.890244  1
  X0+  X815  1  0.268293  0.890244  0.853659  1
  X0+  X816  1  0.353659  0.853659  0.975610  1
  X0+  X817  1  0.390244  0.890244  0.975610  1
  X0+  X818  1  0.390244  -0.016260  0.886179  1
  X0+  X819  1  0.357724  0.983740  0.853659  1
  X0+  X820  1  0.243902  0.642276  0.894309  1
  X0+  X821  1  0.243902  0.609756  0.853659  1
  X0+  X822  1  0.105691  0.642276  0.756098  1
  X0+  X823  1  0.146341  0.609756  0.756098  1
  X0+  X824  1  0.109756  0.731707  0.853659  1
  X0+  X825  1  0.146341  0.731707  0.890244  1
  X0+  X826  1  0.097561  0.512195  0.902439  1
  X0+  X827  1  0.121951  0.512195  0.878049  1
  X0+  X828  1  0.146341  0.512195  0.853659  1
  X0+  X829  1  0.012195  0.634146  0.853659  1
  X0+  X830  1  0.000000  0.609756  0.878049  1
  X0+  X831  1  0.024390  0.609756  0.902439  1
  X0+  X832  1  0.097561  0.609756  0.975610  1
  X0+  X833  1  0.146341  0.634146  0.975610  1
