# generated using pymatgen
data_K26Na96Li96Ca
_symmetry_space_group_name_H-M   'P 1'
_cell_length_a   20.31231100
_cell_length_b   20.31233900
_cell_length_c   20.31242400
_cell_angle_alpha   90.00018617
_cell_angle_beta   90.00063749
_cell_angle_gamma   89.99892812
_symmetry_Int_Tables_number   1
_chemical_formula_structural   K26Na96Li96Ca
_chemical_formula_sum   'K104 Na384 Li384 Ca4'
_cell_volume   8380.71412612
_cell_formula_units_Z   4
loop_
 _symmetry_equiv_pos_site_id
 _symmetry_equiv_pos_as_xyz
  1  'x, y, z'
loop_
 _atom_site_type_symbol
 _atom_site_label
 _atom_site_symmetry_multiplicity
 _atom_site_fract_x
 _atom_site_fract_y
 _atom_site_fract_z
 _atom_site_occupancy
  Ca  Ca0  1  0.944665  0.571799  0.184235  1
  Ca  Ca1  1  0.571867  0.930154  0.193246  1
  Ca  Ca2  1  0.312416  0.415841  0.953136  1
  Ca  Ca3  1  1.069950  0.174422  0.947926  1
  Na  Na4  1  1.102386  0.464466  1.034210  1
  Na  Na5  1  1.102024  0.464237  0.534808  1
  Na  Na6  1  1.112213  0.953710  1.040673  1
  Na  Na7  1  1.111012  0.968270  0.540441  1
  Na  Na8  1  0.603616  0.463344  1.036075  1
  Na  Na9  1  0.608976  0.465889  0.534717  1
  Na  Na10  1  0.612114  0.961910  1.037049  1
  Na  Na11  1  0.604004  0.964753  0.537570  1
  Na  Na12  1  0.455602  0.395350  0.459071  1
  Na  Na13  1  0.465065  0.384840  0.954448  1
  Na  Na14  1  0.463633  0.888844  0.458511  1
  Na  Na15  1  0.457391  0.894661  0.961646  1
  Na  Na16  1  0.960239  0.387604  0.460213  1
  Na  Na17  1  0.961252  0.399207  0.958491  1
  Na  Na18  1  0.958788  0.883252  0.457686  1
  Na  Na19  1  0.957306  0.892594  0.964653  1
  Na  Na20  1  0.392091  1.033222  1.032161  1
  Na  Na21  1  0.388171  1.039862  0.537563  1
  Na  Na22  1  0.384114  0.534486  1.041751  1
  Na  Na23  1  0.392412  0.532346  0.534421  1
  Na  Na24  1  0.889825  1.035337  1.036499  1
  Na  Na25  1  0.892390  1.039920  0.546202  1
  Na  Na26  1  0.883138  0.537098  1.038104  1
  Na  Na27  1  0.887514  0.538832  0.536962  1
  Na  Na28  1  1.030706  1.106508  0.458809  1
  Na  Na29  1  1.038364  1.116453  0.961125  1
  Na  Na30  1  1.037289  0.612188  0.461653  1
  Na  Na31  1  1.031124  0.610856  0.955592  1
  Na  Na32  1  0.544807  0.113099  0.461370  1
  Na  Na33  1  0.534205  0.108726  0.955771  1
  Na  Na34  1  0.533865  0.608759  0.465444  1
  Na  Na35  1  0.531576  0.619402  0.961486  1
  Na  Na36  1  1.105495  1.033318  0.460882  1
  Na  Na37  1  1.110295  1.043362  0.961132  1
  Na  Na38  1  1.112844  0.541595  0.469469  1
  Na  Na39  1  1.103091  0.533994  0.969347  1
  Na  Na40  1  0.609559  1.043775  0.463230  1
  Na  Na41  1  0.611979  1.037062  0.960535  1
  Na  Na42  1  0.608161  0.536810  0.459198  1
  Na  Na43  1  0.605158  0.533437  0.960477  1
  Na  Na44  1  1.029677  0.394651  1.041608  1
  Na  Na45  1  1.041977  0.395558  0.540863  1
  Na  Na46  1  1.042423  0.887682  1.039447  1
  Na  Na47  1  1.038190  0.890265  0.544558  1
  Na  Na48  1  0.533684  0.389183  1.045641  1
  Na  Na49  1  0.534816  0.385757  0.542179  1
  Na  Na50  1  0.542298  0.881969  1.035211  1
  Na  Na51  1  0.538311  0.889902  0.540820  1
  Na  Na52  1  0.392613  0.466397  0.472337  1
  Na  Na53  1  0.382747  0.457319  0.962175  1
  Na  Na54  1  0.383495  0.966501  0.455680  1
  Na  Na55  1  0.389356  0.971050  0.961863  1
  Na  Na56  1  0.886939  0.456027  0.468799  1
  Na  Na57  1  0.883863  0.462170  0.961379  1
  Na  Na58  1  0.885741  0.967432  0.463764  1
  Na  Na59  1  0.890352  0.962887  0.962265  1
  Na  Na60  1  0.465225  0.107949  1.037443  1
  Na  Na61  1  0.455058  0.109360  0.542912  1
  Na  Na62  1  0.460201  0.612305  1.040667  1
  Na  Na63  1  0.464336  0.609318  0.546169  1
  Na  Na64  1  0.967355  1.114170  1.041274  1
  Na  Na65  1  0.962127  1.108233  0.540048  1
  Na  Na66  1  0.951858  0.617043  1.038786  1
  Na  Na67  1  0.954614  0.610648  0.544410  1
  Na  Na68  1  0.465667  1.041643  1.106646  1
  Na  Na69  1  0.459512  1.043513  0.613013  1
  Na  Na70  1  0.458799  0.542207  0.111019  1
  Na  Na71  1  0.454499  0.540951  0.608335  1
  Na  Na72  1  0.956487  1.042733  1.115780  1
  Na  Na73  1  0.962675  1.043865  0.603195  1
  Na  Na74  1  0.957953  0.544223  1.112952  1
  Na  Na75  1  0.962694  0.541456  0.612686  1
  Na  Na76  1  0.465064  0.460670  0.390407  1
  Na  Na77  1  0.465203  0.455637  0.888665  1
  Na  Na78  1  0.458950  0.960657  0.384586  1
  Na  Na79  1  0.470578  0.960788  0.883654  1
  Na  Na80  1  0.958325  0.459792  0.388979  1
  Na  Na81  1  0.963825  0.463607  0.887662  1
  Na  Na82  1  0.953772  0.960837  0.393377  1
  Na  Na83  1  0.962618  0.956663  0.889721  1
  Na  Na84  1  1.042474  1.036906  0.395412  1
  Na  Na85  1  1.037217  1.040825  0.885605  1
  Na  Na86  1  1.027851  0.548879  0.386751  1
  Na  Na87  1  1.023968  0.543563  0.887470  1
  Na  Na88  1  0.539544  1.044627  0.384332  1
  Na  Na89  1  0.534390  1.042810  0.892411  1
  Na  Na90  1  0.534553  0.539378  0.392963  1
  Na  Na91  1  0.537458  0.541467  0.890281  1
  Na  Na92  1  1.033803  0.460610  1.104290  1
  Na  Na93  1  1.035072  0.460034  0.606182  1
  Na  Na94  1  1.047400  0.963193  1.105970  1
  Na  Na95  1  1.036001  0.959354  0.612312  1
  Na  Na96  1  0.534077  0.449473  0.107439  1
  Na  Na97  1  0.537326  0.463385  0.615311  1
  Na  Na98  1  0.531266  0.952900  1.119471  1
  Na  Na99  1  0.531677  0.954851  0.603819  1
  Na  Na100  1  1.102827  0.210580  0.277811  1
  Na  Na101  1  1.108655  0.221208  0.787926  1
  Na  Na102  1  1.105452  0.714569  0.293044  1
  Na  Na103  1  0.111932  0.708240  0.789159  1
  Na  Na104  1  0.610831  0.212676  0.287165  1
  Na  Na105  1  0.603876  0.212184  0.790918  1
  Na  Na106  1  0.602592  0.716303  0.294624  1
  Na  Na107  1  0.608554  0.720877  0.787192  1
  Na  Na108  1  0.464980  0.141551  0.196505  1
  Na  Na109  1  0.457380  0.134083  0.712364  1
  Na  Na110  1  0.464367  0.635194  0.207686  1
  Na  Na111  1  0.462409  0.641213  0.715954  1
  Na  Na112  1  0.961979  0.139197  0.211451  1
  Na  Na113  1  0.960042  0.142771  0.712654  1
  Na  Na114  1  0.958686  0.638096  0.207655  1
  Na  Na115  1  0.958798  0.643196  0.709448  1
  Na  Na116  1  0.393738  0.288078  0.283689  1
  Na  Na117  1  0.385353  0.291947  0.790266  1
  Na  Na118  1  0.390792  0.785100  0.288769  1
  Na  Na119  1  0.388122  0.783155  0.788106  1
  Na  Na120  1  0.887051  0.290355  0.290553  1
  Na  Na121  1  0.890682  0.287546  0.781073  1
  Na  Na122  1  0.886343  0.792738  0.288226  1
  Na  Na123  1  0.889817  0.792903  0.787377  1
  Na  Na124  1  1.033932  0.358041  0.206254  1
  Na  Na125  1  1.039172  0.363060  0.712318  1
  Na  Na126  1  1.042734  0.858582  0.204227  1
  Na  Na127  1  1.040420  0.862678  0.714049  1
  Na  Na128  1  0.531331  0.363442  0.214026  1
  Na  Na129  1  0.537031  0.365252  0.702605  1
  Na  Na130  1  0.537528  0.866053  0.199710  1
  Na  Na131  1  0.537644  0.864302  0.705944  1
  Na  Na132  1  1.106454  0.290904  0.216268  1
  Na  Na133  1  1.109266  0.290022  0.711550  1
  Na  Na134  1  1.107799  0.785866  0.212195  1
  Na  Na135  1  0.107485  0.790554  0.709207  1
  Na  Na136  1  0.604994  0.288164  0.213132  1
  Na  Na137  1  0.614438  0.291124  0.708722  1
  Na  Na138  1  0.607717  0.790334  0.208934  1
  Na  Na139  1  0.609738  0.784486  0.720896  1
  Na  Na140  1  1.034132  0.145235  0.291705  1
  Na  Na141  1  1.030667  0.139852  0.786085  1
  Na  Na142  1  1.042652  0.642232  0.288467  1
  Na  Na143  1  1.039499  0.646641  0.791505  1
  Na  Na144  1  0.532887  0.138509  0.292489  1
  Na  Na145  1  0.528503  0.141657  0.789275  1
  Na  Na146  1  0.536237  0.643400  0.296506  1
  Na  Na147  1  0.532999  0.637961  0.785818  1
  Na  Na148  1  0.390380  0.216838  0.217909  1
  Na  Na149  1  0.386163  0.210021  0.711626  1
  Na  Na150  1  0.387927  0.712576  0.211746  1
  Na  Na151  1  0.388903  0.723638  0.726971  1
  Na  Na152  1  0.887205  0.213214  0.207589  1
  Na  Na153  1  0.888498  0.220303  0.720105  1
  Na  Na154  1  0.884374  0.714262  0.213978  1
  Na  Na155  1  0.888204  0.712423  0.715107  1
  Na  Na156  1  0.464118  0.361326  0.293580  1
  Na  Na157  1  0.461280  0.364555  0.795770  1
  Na  Na158  1  0.458998  0.865618  0.289662  1
  Na  Na159  1  0.464704  0.861962  0.794685  1
  Na  Na160  1  0.957671  0.361312  0.288370  1
  Na  Na161  1  0.964981  0.363873  0.791402  1
  Na  Na162  1  0.954939  0.861636  0.294620  1
  Na  Na163  1  0.953513  0.859515  0.789935  1
  Na  Na164  1  0.465703  0.284652  0.361861  1
  Na  Na165  1  0.464560  0.287150  0.865476  1
  Na  Na166  1  0.456590  0.785917  0.364295  1
  Na  Na167  1  0.464992  0.786154  0.865930  1
  Na  Na168  1  0.958465  0.288521  0.360858  1
  Na  Na169  1  0.961254  0.295428  0.858284  1
  Na  Na170  1  0.952569  0.797667  0.366316  1
  Na  Na171  1  0.962302  0.787536  0.861020  1
  Na  Na172  1  0.464791  0.212618  0.136991  1
  Na  Na173  1  0.458497  0.210626  0.635634  1
  Na  Na174  1  0.455606  0.710039  0.137973  1
  Na  Na175  1  0.467905  0.705393  0.636543  1
  Na  Na176  1  0.959008  0.206795  0.134714  1
  Na  Na177  1  0.961770  0.218300  0.639464  1
  Na  Na178  1  0.961188  0.711562  0.136713  1
  Na  Na179  1  0.959725  0.705379  0.639362  1
  Na  Na180  1  1.034311  0.294605  0.144447  1
  Na  Na181  1  1.031557  0.289895  0.641736  1
  Na  Na182  1  1.034763  0.793947  0.145567  1
  Na  Na183  1  1.034987  0.789336  0.632745  1
  Na  Na184  1  0.534480  0.285222  0.139030  1
  Na  Na185  1  0.534139  0.297618  0.627574  1
  Na  Na186  1  0.540360  0.784512  0.137761  1
  Na  Na187  1  0.530340  0.790560  0.641083  1
  Na  Na188  1  1.036022  0.206541  0.363239  1
  Na  Na189  1  1.042672  0.207189  0.869016  1
  Na  Na190  1  1.038428  0.710481  0.356611  1
  Na  Na191  1  1.038884  0.717097  0.856607  1
  Na  Na192  1  0.537086  0.211773  0.363268  1
  Na  Na193  1  0.534067  0.205600  0.855395  1
  Na  Na194  1  0.537204  0.708473  0.356304  1
  Na  Na195  1  0.527687  0.717231  0.864398  1
  Na  Na196  1  0.357230  0.468931  0.285799  1
  Na  Na197  1  0.350020  0.462308  0.792503  1
  Na  Na198  1  0.354181  0.957359  0.282498  1
  Na  Na199  1  0.352592  0.966431  0.778906  1
  Na  Na200  1  0.858412  0.459147  0.284135  1
  Na  Na201  1  0.858572  0.470769  0.780892  1
  Na  Na202  1  0.859591  0.965554  0.285472  1
  Na  Na203  1  0.857082  0.972883  0.776409  1
  Na  Na204  1  0.220145  0.391435  0.230279  1
  Na  Na205  1  0.214679  0.390670  0.716223  1
  Na  Na206  1  0.206473  0.887538  0.212998  1
  Na  Na207  1  0.210561  0.892800  0.720689  1
  Na  Na208  1  0.715346  0.392372  0.218489  1
  Na  Na209  1  0.714503  0.391311  0.718555  1
  Na  Na210  1  0.711286  0.890413  0.212899  1
  Na  Na211  1  0.720996  0.889117  0.731116  1
  Na  Na212  1  0.141463  1.030102  0.284416  1
  Na  Na213  1  0.141748  1.036571  0.786963  1
  Na  Na214  1  0.142833  0.529951  0.291095  1
  Na  Na215  1  0.144519  0.533320  0.771284  1
  Na  Na216  1  0.640346  1.038261  0.287092  1
  Na  Na217  1  0.638154  1.031297  0.775599  1
  Na  Na218  1  0.641233  0.520019  0.267164  1
  Na  Na219  1  0.639224  0.536713  0.775097  1
  Na  Na220  1  0.272230  1.107250  0.227843  1
  Na  Na221  1  0.285260  0.113805  0.715043  1
  Na  Na222  1  0.291301  0.608114  0.217147  1
  Na  Na223  1  0.279603  0.612200  0.734977  1
  Na  Na224  1  0.787416  0.108133  0.213973  1
  Na  Na225  1  0.775563  0.114003  0.723513  1
  Na  Na226  1  0.790798  0.609414  0.220777  1
  Na  Na227  1  0.787664  0.615669  0.714035  1
  Na  Na228  1  0.352941  1.031955  0.214018  1
  Na  Na229  1  0.358876  1.027615  0.720322  1
  Na  Na230  1  0.358256  0.526564  0.209935  1
  Na  Na231  1  0.359242  0.530048  0.714684  1
  Na  Na232  1  0.860258  1.029355  0.212817  1
  Na  Na233  1  0.857535  1.021731  0.727438  1
  Na  Na234  1  0.856829  0.541139  0.210279  1
  Na  Na235  1  0.860232  0.536167  0.716002  1
  Na  Na236  1  0.273566  0.394462  0.271593  1
  Na  Na237  1  0.279665  0.391718  0.783382  1
  Na  Na238  1  0.288151  0.896232  0.292928  1
  Na  Na239  1  0.275694  0.897535  0.790566  1
  Na  Na240  1  0.787556  0.392348  0.276677  1
  Na  Na241  1  0.786270  0.395036  0.779100  1
  Na  Na242  1  0.785537  0.892082  0.289060  1
  Na  Na243  1  0.775469  0.892413  0.783055  1
  Na  Na244  1  0.143001  0.468682  0.210754  1
  Na  Na245  1  0.135093  0.471512  0.719514  1
  Na  Na246  1  0.139551  0.954041  0.213572  1
  Na  Na247  1  0.135603  0.969706  0.712345  1
  Na  Na248  1  0.643506  0.477134  0.224510  1
  Na  Na249  1  0.640312  0.472348  0.716352  1
  Na  Na250  1  0.642713  0.960234  0.213185  1
  Na  Na251  1  0.636949  0.976011  0.714466  1
  Na  Na252  1  0.220770  1.107526  0.268908  1
  Na  Na253  1  0.205405  0.108150  0.782615  1
  Na  Na254  1  0.213339  0.610886  0.291558  1
  Na  Na255  1  0.225598  0.609730  0.779332  1
  Na  Na256  1  0.713600  0.110934  0.280246  1
  Na  Na257  1  0.723363  0.109409  0.779988  1
  Na  Na258  1  0.712727  0.611071  0.284298  1
  Na  Na259  1  0.710504  0.607063  0.778369  1
  Na  Na260  1  0.210529  1.023667  0.353830  1
  Na  Na261  1  0.214134  1.034012  0.855160  1
  Na  Na262  1  0.218837  0.535957  0.361901  1
  Na  Na263  1  0.209615  0.532133  0.861323  1
  Na  Na264  1  0.716570  1.044354  0.360874  1
  Na  Na265  1  0.712987  1.030988  0.861112  1
  Na  Na266  1  0.711136  0.535745  0.357883  1
  Na  Na267  1  0.720348  0.523773  0.853191  1
  Na  Na268  1  0.209322  0.472704  0.145203  1
  Na  Na269  1  0.220550  0.482128  0.637933  1
  Na  Na270  1  0.216291  0.967872  0.142663  1
  Na  Na271  1  0.204555  0.962629  0.642820  1
  Na  Na272  1  0.713206  0.465709  0.142962  1
  Na  Na273  1  0.707984  0.465228  0.640779  1
  Na  Na274  1  0.716299  0.970687  0.140219  1
  Na  Na275  1  0.714545  0.973901  0.636433  1
  Na  Na276  1  0.286916  1.025292  0.137785  1
  Na  Na277  1  0.285385  1.038470  0.635923  1
  Na  Na278  1  0.283088  0.533449  0.143347  1
  Na  Na279  1  0.270963  0.528923  0.640782  1
  Na  Na280  1  0.781786  1.029569  0.143740  1
  Na  Na281  1  0.780994  1.033246  0.641349  1
  Na  Na282  1  0.785018  0.526990  0.139847  1
  Na  Na283  1  0.785000  0.537713  0.634673  1
  Na  Na284  1  0.285152  0.468972  0.359333  1
  Na  Na285  1  0.276442  0.469138  0.860399  1
  Na  Na286  1  0.276733  0.959684  0.359301  1
  Na  Na287  1  0.284105  0.968412  0.853959  1
  Na  Na288  1  0.782851  0.470951  0.358286  1
  Na  Na289  1  0.768013  0.482570  0.851546  1
  Na  Na290  1  0.781767  0.970288  0.354920  1
  Na  Na291  1  0.774862  0.974790  0.858056  1
  Na  Na292  1  0.356758  0.217542  1.030785  1
  Na  Na293  1  0.355315  0.218714  0.526656  1
  Na  Na294  1  0.347490  0.717227  1.038012  1
  Na  Na295  1  0.359859  0.714865  0.524393  1
  Na  Na296  1  0.859399  0.204933  1.030181  1
  Na  Na297  1  0.856250  0.221661  0.530341  1
  Na  Na298  1  0.858845  0.721760  1.039844  1
  Na  Na299  1  0.855565  0.710629  0.541804  1
  Na  Na300  1  0.211644  0.144642  0.459411  1
  Na  Na301  1  0.210780  0.140075  0.964543  1
  Na  Na302  1  0.214625  0.643370  0.468041  1
  Na  Na303  1  0.209594  0.642048  0.974590  1
  Na  Na304  1  0.717047  0.144078  0.475462  1
  Na  Na305  1  0.709973  0.138221  0.961903  1
  Na  Na306  1  0.716398  0.645390  0.473515  1
  Na  Na307  1  0.712672  0.645390  0.971995  1
  Na  Na308  1  0.139522  0.286953  1.026877  1
  Na  Na309  1  0.138380  0.271804  0.532099  1
  Na  Na310  1  0.141757  0.777341  1.044413  1
  Na  Na311  1  0.136084  0.785748  0.539000  1
  Na  Na312  1  0.644337  0.276212  1.035170  1
  Na  Na313  1  0.638698  0.292509  0.530328  1
  Na  Na314  1  0.637943  0.782153  1.037997  1
  Na  Na315  1  0.642293  0.775632  0.524902  1
  Na  Na316  1  0.279952  0.361019  0.471755  1
  Na  Na317  1  0.281818  0.357533  0.962475  1
  Na  Na318  1  0.290309  0.859131  0.465276  1
  Na  Na319  1  0.279521  0.862588  0.962853  1
  Na  Na320  1  0.782906  0.361255  0.459204  1
  Na  Na321  1  0.775068  0.358994  0.982927  1
  Na  Na322  1  0.779901  0.861871  0.472159  1
  Na  Na323  1  0.783993  0.860352  0.967345  1
  Na  Na324  1  0.355304  0.288319  0.458921  1
  Na  Na325  1  0.358492  0.279046  0.964374  1
  Na  Na326  1  0.356381  0.775562  0.470026  1
  Na  Na327  1  0.353051  0.788527  0.965728  1
  Na  Na328  1  0.854976  0.289045  0.476682  1
  Na  Na329  1  0.853779  0.283193  0.958542  1
  Na  Na330  1  0.854631  0.789161  0.455679  1
  Na  Na331  1  0.856615  0.785012  0.970809  1
  Na  Na332  1  0.284258  0.147026  1.030912  1
  Na  Na333  1  0.278415  0.140256  0.535418  1
  Na  Na334  1  0.280271  0.642851  1.034013  1
  Na  Na335  1  0.282104  0.643452  0.531331  1
  Na  Na336  1  0.789233  0.140812  1.034003  1
  Na  Na337  1  0.786552  0.151171  0.534220  1
  Na  Na338  1  0.780813  0.638044  1.033785  1
  Na  Na339  1  0.781713  0.642376  0.530015  1
  Na  Na340  1  0.138654  0.216604  0.477536  1
  Na  Na341  1  0.134436  0.219748  0.958253  1
  Na  Na342  1  0.140849  0.713485  0.464786  1
  Na  Na343  1  0.130835  0.714605  0.957765  1
  Na  Na344  1  0.637523  0.211128  0.462958  1
  Na  Na345  1  0.641120  0.216537  0.976702  1
  Na  Na346  1  0.640828  0.730751  0.476487  1
  Na  Na347  1  0.639871  0.710922  0.972256  1
  Na  Na348  1  0.210755  0.351999  1.036201  1
  Na  Na349  1  0.224273  0.358415  0.526909  1
  Na  Na350  1  0.217796  0.863174  1.033926  1
  Na  Na351  1  0.209880  0.860452  0.532000  1
  Na  Na352  1  0.722371  0.359721  1.026903  1
  Na  Na353  1  0.706878  0.365892  0.529262  1
  Na  Na354  1  0.714277  0.857646  1.037560  1
  Na  Na355  1  0.710428  0.859239  0.531238  1
  Na  Na356  1  0.237529  0.275118  1.105230  1
  Na  Na357  1  0.218112  0.284506  0.608061  1
  Na  Na358  1  0.205918  0.783032  0.114249  1
  Na  Na359  1  0.215413  0.783377  0.614296  1
  Na  Na360  1  0.714170  0.281394  0.107952  1
  Na  Na361  1  0.712027  0.283703  0.607837  1
  Na  Na362  1  0.710285  0.787077  0.112654  1
  Na  Na363  1  0.713782  0.781918  0.611317  1
  Na  Na364  1  0.219379  0.221512  0.390903  1
  Na  Na365  1  0.208675  0.214238  0.887538  1
  Na  Na366  1  0.205978  0.716565  0.401752  1
  Na  Na367  1  0.218999  0.730142  0.898694  1
  Na  Na368  1  0.713404  0.210887  0.386432  1
  Na  Na369  1  0.720982  0.224313  0.892078  1
  Na  Na370  1  0.712295  0.721308  0.395220  1
  Na  Na371  1  0.725221  0.724606  0.897804  1
  Na  Na372  1  0.281781  0.275230  0.388435  1
  Na  Na373  1  0.289303  0.284711  0.887639  1
  Na  Na374  1  0.283586  0.786083  0.392258  1
  Na  Na375  1  0.269242  0.771808  0.896143  1
  Na  Na376  1  0.779296  0.286606  0.390716  1
  Na  Na377  1  0.778091  0.267018  0.891086  1
  Na  Na378  1  0.783074  0.777626  0.392935  1
  Na  Na379  1  0.778871  0.772326  0.896714  1
  Na  Na380  1  0.270257  0.231594  1.105592  1
  Na  Na381  1  0.282985  0.218805  0.607792  1
  Na  Na382  1  0.290727  0.717126  0.114121  1
  Na  Na383  1  0.278452  0.725476  0.610028  1
  Na  Na384  1  0.786115  0.212558  0.113253  1
  Na  Na385  1  0.777306  0.227483  0.606342  1
  Na  Na386  1  0.785457  0.712153  0.114463  1
  Na  Na387  1  0.784945  0.724766  0.613075  1
  K  K388  1  1.039066  1.061315  0.562526  1
  K  K389  1  1.062469  0.559893  1.063144  1
  K  K390  1  1.076451  0.569723  0.542355  1
  K  K391  1  0.558733  0.070919  1.066529  1
  K  K392  1  0.562889  0.568007  0.068129  1
  K  K393  1  1.061600  0.437377  0.938235  1
  K  K394  1  1.063933  0.938020  0.439848  1
  K  K395  1  0.548892  0.434689  0.429122  1
  K  K396  1  0.562546  0.431207  0.931898  1
  K  K397  1  0.559898  0.933331  0.429897  1
  K  K398  1  0.554374  0.928938  0.917907  1
  K  K399  1  0.430159  0.428230  0.057246  1
  K  K400  1  0.430279  0.445865  0.576976  1
  K  K401  1  0.431426  0.933705  1.068939  1
  K  K402  1  0.936210  0.426155  1.060572  1
  K  K403  1  0.429279  0.059560  0.930688  1
  K  K404  1  0.445871  0.563327  0.439141  1
  K  K405  1  0.442612  0.569703  0.934122  1
  K  K406  1  0.939665  1.092076  0.436172  1
  K  K407  1  0.943725  1.066529  0.930219  1
  K  K408  1  0.926219  0.553987  0.932131  1
  K  K409  1  1.076354  0.315361  0.303651  1
  K  K410  1  1.057802  0.326656  0.816168  1
  K  K411  1  0.061077  0.822026  0.826870  1
  K  K412  1  0.565668  0.313511  0.311187  1
  K  K413  1  0.558838  0.295290  0.811722  1
  K  K414  1  0.566749  0.818660  0.819202  1
  K  K415  1  1.077465  0.187698  0.202077  1
  K  K416  1  1.055183  0.177262  0.681213  1
  K  K417  1  0.072411  0.680357  0.700214  1
  K  K418  1  0.572804  0.182016  0.170978  1
  K  K419  1  0.562391  0.674990  0.206569  1
  K  K420  1  0.559909  0.680505  0.681960  1
  K  K421  1  0.409003  0.199543  0.292196  1
  K  K422  1  0.436607  0.198260  0.825524  1
  K  K423  1  0.435759  0.678908  0.319970  1
  K  K424  1  0.438795  0.683244  0.821936  1
  K  K425  1  0.937288  0.183259  0.305296  1
  K  K426  1  0.933320  0.187636  0.814903  1
  K  K427  1  0.430781  0.316784  0.183535  1
  K  K428  1  0.435262  0.814289  0.191501  1
  K  K429  1  0.434570  0.818926  0.682575  1
  K  K430  1  0.942174  0.326910  0.168059  1
  K  K431  1  0.935388  0.318758  0.687226  1
  K  K432  1  0.930968  0.818011  0.201339  1
  K  K433  1  0.308137  1.068746  0.307319  1
  K  K434  1  0.312280  0.063240  0.814480  1
  K  K435  1  0.314957  0.544585  0.330221  1
  K  K436  1  0.303628  0.574465  0.806196  1
  K  K437  1  0.818046  0.059083  0.309504  1
  K  K438  1  0.812745  0.064471  0.812390  1
  K  K439  1  0.813424  0.562212  0.814877  1
  K  K440  1  0.307087  0.436347  0.190326  1
  K  K441  1  0.310566  0.441241  0.686214  1
  K  K442  1  0.320035  0.934268  0.172151  1
  K  K443  1  0.315517  0.938999  0.688727  1
  K  K444  1  0.811502  0.428735  0.699357  1
  K  K445  1  0.795695  0.940406  0.190708  1
  K  K446  1  0.812449  0.941724  0.682430  1
  K  K447  1  0.181691  0.438432  0.311595  1
  K  K448  1  0.179642  0.440284  0.811172  1
  K  K449  1  0.183490  0.944145  0.312756  1
  K  K450  1  0.192125  0.936970  0.814022  1
  K  K451  1  0.682871  0.441176  0.310648  1
  K  K452  1  0.691623  0.443888  0.815227  1
  K  K453  1  0.696982  0.942076  0.319829  1
  K  K454  1  0.685534  0.937572  0.813805  1
  K  K455  1  0.190262  1.073179  0.192346  1
  K  K456  1  0.170050  0.061863  0.694030  1
  K  K457  1  0.174378  0.553620  0.195670  1
  K  K458  1  0.180707  0.564911  0.686780  1
  K  K459  1  0.678912  0.066255  0.685657  1
  K  K460  1  0.678696  0.560775  0.187607  1
  K  K461  1  0.653273  0.562063  0.707995  1
  K  K462  1  0.310033  0.310220  1.066266  1
  K  K463  1  0.309149  0.322014  0.555477  1
  K  K464  1  0.306517  0.811835  0.066425  1
  K  K465  1  0.321788  0.807138  0.563458  1
  K  K466  1  0.809334  0.315496  0.060774  1
  K  K467  1  0.817051  0.304881  0.563819  1
  K  K468  1  0.826359  0.819513  0.045869  1
  K  K469  1  0.822195  0.804502  0.565313  1
  K  K470  1  0.307137  0.193807  0.432647  1
  K  K471  1  0.315981  0.170500  0.941595  1
  K  K472  1  0.314563  0.685108  0.448303  1
  K  K473  1  0.305952  0.696033  0.941337  1
  K  K474  1  0.812292  0.187151  0.443776  1
  K  K475  1  0.808063  0.189039  0.928009  1
  K  K476  1  0.808342  0.691479  0.423860  1
  K  K477  1  0.809704  0.693325  0.934877  1
  K  K478  1  0.185822  0.194283  1.068121  1
  K  K479  1  0.178778  0.191021  0.560312  1
  K  K480  1  0.191266  0.683746  0.565024  1
  K  K481  1  0.682375  0.184572  0.062840  1
  K  K482  1  0.718080  0.184379  0.567574  1
  K  K483  1  0.678268  0.681081  0.061137  1
  K  K484  1  0.682028  0.690992  0.561311  1
  K  K485  1  0.182789  0.313423  0.432553  1
  K  K486  1  0.171254  0.326126  0.945599  1
  K  K487  1  0.182176  0.802205  0.434369  1
  K  K488  1  0.185190  0.807299  0.935728  1
  K  K489  1  0.684058  0.314279  0.938117  1
  K  K490  1  0.682242  0.814144  0.442353  1
  K  K491  1  0.684303  0.809747  0.941061  1
  Li  Li492  1  0.987168  1.110237  1.105054  1
  Li  Li493  1  0.980819  1.096464  0.591209  1
  Li  Li494  1  0.983408  0.600891  1.102869  1
  Li  Li495  1  0.984403  0.602311  0.602952  1
  Li  Li496  1  0.484936  0.096280  1.096558  1
  Li  Li497  1  0.482630  0.102791  0.600464  1
  Li  Li498  1  0.483766  0.599733  0.103595  1
  Li  Li499  1  0.483099  0.600032  0.588901  1
  Li  Li500  1  1.085091  1.016350  0.410781  1
  Li  Li501  1  1.096464  1.016743  0.901764  1
  Li  Li502  1  1.098522  0.513759  0.402188  1
  Li  Li503  1  1.086067  0.511413  0.915579  1
  Li  Li504  1  0.589704  1.017505  0.401875  1
  Li  Li505  1  0.589907  1.013310  0.910838  1
  Li  Li506  1  0.586791  0.511580  0.408294  1
  Li  Li507  1  0.588194  0.514115  0.909256  1
  Li  Li508  1  1.007380  0.407950  1.096202  1
  Li  Li509  1  1.016784  0.409872  0.592975  1
  Li  Li510  1  1.014263  0.902010  1.098760  1
  Li  Li511  1  1.013954  0.899793  0.597633  1
  Li  Li512  1  0.515519  0.405410  0.093436  1
  Li  Li513  1  0.511673  0.397687  0.603096  1
  Li  Li514  1  0.511251  0.894649  1.106689  1
  Li  Li515  1  0.517333  0.910471  0.593782  1
  Li  Li516  1  0.400154  0.986439  0.401286  1
  Li  Li517  1  0.411042  0.985937  0.913766  1
  Li  Li518  1  0.406657  0.487467  0.419406  1
  Li  Li519  1  0.398365  0.489801  0.900714  1
  Li  Li520  1  0.897789  0.987945  0.407102  1
  Li  Li521  1  0.912310  0.982008  0.907969  1
  Li  Li522  1  0.900660  0.490197  0.402723  1
  Li  Li523  1  0.909830  0.486964  0.910290  1
  Li  Li524  1  0.980710  0.400951  0.397754  1
  Li  Li525  1  0.988223  0.414158  0.903960  1
  Li  Li526  1  0.984795  0.895330  0.395332  1
  Li  Li527  1  0.984109  0.909178  0.904849  1
  Li  Li528  1  0.486932  0.411935  0.407875  1
  Li  Li529  1  0.483824  0.395268  0.897156  1
  Li  Li530  1  0.485020  0.897928  0.396603  1
  Li  Li531  1  0.492003  0.903742  0.900247  1
  Li  Li532  1  0.409527  1.013503  1.081529  1
  Li  Li533  1  0.401700  1.016717  0.592366  1
  Li  Li534  1  0.400628  0.514795  0.097847  1
  Li  Li535  1  0.409641  0.512822  0.586804  1
  Li  Li536  1  0.903558  1.012872  1.096304  1
  Li  Li537  1  0.910064  1.018443  0.590801  1
  Li  Li538  1  0.903756  0.515089  1.091860  1
  Li  Li539  1  0.899410  0.520844  0.596059  1
  Li  Li540  1  1.012089  1.096196  0.410189  1
  Li  Li541  1  1.011328  1.107476  0.892448  1
  Li  Li542  1  1.010769  0.603713  0.394840  1
  Li  Li543  1  1.012225  0.594556  0.909375  1
  Li  Li544  1  0.510852  0.105661  0.390512  1
  Li  Li545  1  0.511166  0.089694  0.909068  1
  Li  Li546  1  0.515373  0.587702  0.408452  1
  Li  Li547  1  0.509166  0.595739  0.903515  1
  Li  Li548  1  1.101324  0.985561  1.098900  1
  Li  Li549  1  1.100611  0.989903  0.591975  1
  Li  Li550  1  1.084903  0.486895  1.081107  1
  Li  Li551  1  1.081502  0.483692  0.589403  1
  Li  Li552  1  0.599933  0.988334  1.091931  1
  Li  Li553  1  0.589775  0.979489  0.579081  1
  Li  Li554  1  0.590133  0.483792  0.082948  1
  Li  Li555  1  0.592113  0.487381  0.593250  1
  Li  Li556  1  1.098390  1.100261  0.983157  1
  Li  Li557  1  1.084381  1.084351  0.481900  1
  Li  Li558  1  1.086368  0.588319  0.992001  1
  Li  Li559  1  1.094340  0.594596  0.487013  1
  Li  Li560  1  0.591832  0.087874  0.983068  1
  Li  Li561  1  0.599398  0.099452  0.487301  1
  Li  Li562  1  0.586364  0.593496  0.982091  1
  Li  Li563  1  0.586397  0.592295  0.486074  1
  Li  Li564  1  1.083697  0.417342  1.014248  1
  Li  Li565  1  1.088466  0.418396  0.517793  1
  Li  Li566  1  1.089480  0.909273  1.017790  1
  Li  Li567  1  1.093591  0.904741  0.514726  1
  Li  Li568  1  0.586160  0.414292  1.019836  1
  Li  Li569  1  0.593941  0.408549  0.510656  1
  Li  Li570  1  0.598414  0.907438  1.014313  1
  Li  Li571  1  0.587438  0.914021  0.518803  1
  Li  Li572  1  0.398626  0.404926  0.988349  1
  Li  Li573  1  0.409989  0.416447  0.487050  1
  Li  Li574  1  0.410985  0.913202  0.985586  1
  Li  Li575  1  0.396853  0.896761  0.488601  1
  Li  Li576  1  0.907571  0.413185  0.983563  1
  Li  Li577  1  0.903287  0.407024  0.484056  1
  Li  Li578  1  0.910695  0.911371  0.986402  1
  Li  Li579  1  0.900955  0.907830  0.485690  1
  Li  Li580  1  0.408862  0.087732  1.010216  1
  Li  Li581  1  0.398636  0.098282  0.513566  1
  Li  Li582  1  0.396337  0.597443  1.013326  1
  Li  Li583  1  0.409862  0.587442  0.514193  1
  Li  Li584  1  0.899201  1.096711  1.012578  1
  Li  Li585  1  0.910390  1.096213  0.514908  1
  Li  Li586  1  0.898294  0.594812  1.013931  1
  Li  Li587  1  0.900494  0.593067  0.514245  1
  Li  Li588  1  0.984079  0.355381  0.352787  1
  Li  Li589  1  0.983439  0.348446  0.842199  1
  Li  Li590  1  0.981034  0.856639  0.355960  1
  Li  Li591  1  0.983184  0.845064  0.846295  1
  Li  Li592  1  0.481755  0.347562  0.339057  1
  Li  Li593  1  0.486104  0.358697  0.856386  1
  Li  Li594  1  0.486180  0.853013  0.353454  1
  Li  Li595  1  0.492391  0.848350  0.849591  1
  Li  Li596  1  1.090051  0.265756  0.164744  1
  Li  Li597  1  1.090118  0.265377  0.663181  1
  Li  Li598  1  1.092683  0.763663  0.156243  1
  Li  Li599  1  0.101027  0.762977  0.646943  1
  Li  Li600  1  0.589251  0.263119  0.160503  1
  Li  Li601  1  0.593285  0.268307  0.654932  1
  Li  Li602  1  0.597146  0.769378  0.158297  1
  Li  Li603  1  0.585468  0.765213  0.663572  1
  Li  Li604  1  1.012031  0.156479  0.342198  1
  Li  Li605  1  1.013039  0.146515  0.851910  1
  Li  Li606  1  1.012821  0.649573  0.353578  1
  Li  Li607  1  1.011275  0.662219  0.845816  1
  Li  Li608  1  0.510949  0.148851  0.354884  1
  Li  Li609  1  0.511479  0.161091  0.838682  1
  Li  Li610  1  0.518835  0.655389  0.338108  1
  Li  Li611  1  0.503174  0.654133  0.847128  1
  Li  Li612  1  0.412597  0.237276  0.168197  1
  Li  Li613  1  0.401310  0.236955  0.653424  1
  Li  Li614  1  0.402987  0.735583  0.155403  1
  Li  Li615  1  0.405913  0.739391  0.666906  1
  Li  Li616  1  0.898808  0.233635  0.154958  1
  Li  Li617  1  0.910023  0.240016  0.659198  1
  Li  Li618  1  0.901701  0.732346  0.158862  1
  Li  Li619  1  0.901435  0.737764  0.651599  1
  Li  Li620  1  0.986729  0.144711  0.144507  1
  Li  Li621  1  0.989699  0.157737  0.652091  1
  Li  Li622  1  0.980237  0.647781  0.148867  1
  Li  Li623  1  0.981560  0.649080  0.645642  1
  Li  Li624  1  0.482790  0.158043  0.155172  1
  Li  Li625  1  0.479966  0.149617  0.645215  1
  Li  Li626  1  0.481420  0.646769  0.152146  1
  Li  Li627  1  0.484171  0.660342  0.653427  1
  Li  Li628  1  0.407351  0.262475  0.326609  1
  Li  Li629  1  0.400429  0.265713  0.847988  1
  Li  Li630  1  0.405098  0.762498  0.345645  1
  Li  Li631  1  0.410429  0.766245  0.834184  1
  Li  Li632  1  0.898065  0.265923  0.345993  1
  Li  Li633  1  0.908150  0.264614  0.842423  1
  Li  Li634  1  0.900756  0.766634  0.343135  1
  Li  Li635  1  0.912506  0.768971  0.838928  1
  Li  Li636  1  1.009637  0.346110  0.151661  1
  Li  Li637  1  1.013478  0.345226  0.657740  1
  Li  Li638  1  1.018658  0.848117  0.153973  1
  Li  Li639  1  1.014480  0.852575  0.649684  1
  Li  Li640  1  0.510403  0.341709  0.157860  1
  Li  Li641  1  0.513739  0.355041  0.645593  1
  Li  Li642  1  0.512751  0.860333  0.143301  1
  Li  Li643  1  0.512124  0.848241  0.657231  1
  Li  Li644  1  1.084240  0.231366  0.335658  1
  Li  Li645  1  1.095573  0.238035  0.843906  1
  Li  Li646  1  1.095166  0.734226  0.343498  1
  Li  Li647  1  0.082126  0.734955  0.841487  1
  Li  Li648  1  0.591845  0.236968  0.339827  1
  Li  Li649  1  0.589176  0.232145  0.834377  1
  Li  Li650  1  0.590424  0.733355  0.333006  1
  Li  Li651  1  0.589860  0.742291  0.835144  1
  Li  Li652  1  1.089659  0.336543  0.236992  1
  Li  Li653  1  1.092643  0.341685  0.736989  1
  Li  Li654  1  1.098071  0.849678  0.234454  1
  Li  Li655  1  0.089890  0.848272  0.738041  1
  Li  Li656  1  0.589864  0.339845  0.237903  1
  Li  Li657  1  0.596948  0.350422  0.733682  1
  Li  Li658  1  0.594774  0.843259  0.235667  1
  Li  Li659  1  0.591405  0.836055  0.736648  1
  Li  Li660  1  1.090207  0.164133  0.260144  1
  Li  Li661  1  1.093939  0.156049  0.763212  1
  Li  Li662  1  1.094785  0.656079  0.264588  1
  Li  Li663  1  0.088543  0.665834  0.766637  1
  Li  Li664  1  0.596696  0.152425  0.260888  1
  Li  Li665  1  0.586199  0.169770  0.769759  1
  Li  Li666  1  0.582663  0.662493  0.270852  1
  Li  Li667  1  0.589259  0.657941  0.762743  1
  Li  Li668  1  0.408512  0.164560  0.236642  1
  Li  Li669  1  0.403066  0.151838  0.736872  1
  Li  Li670  1  0.398756  0.650654  0.237225  1
  Li  Li671  1  0.411530  0.660364  0.736454  1
  Li  Li672  1  0.899947  0.150482  0.236079  1
  Li  Li673  1  0.906853  0.164693  0.736404  1
  Li  Li674  1  0.900882  0.658930  0.234122  1
  Li  Li675  1  0.901801  0.659333  0.733976  1
  Li  Li676  1  0.408167  0.334020  0.261787  1
  Li  Li677  1  0.404164  0.343347  0.763641  1
  Li  Li678  1  0.401361  0.846856  0.265187  1
  Li  Li679  1  0.405921  0.837835  0.762267  1
  Li  Li680  1  0.902499  0.350198  0.262623  1
  Li  Li681  1  0.905866  0.343848  0.760452  1
  Li  Li682  1  0.897520  0.847890  0.269619  1
  Li  Li683  1  0.909950  0.839718  0.765698  1
  Li  Li684  1  0.249076  1.084515  0.332067  1
  Li  Li685  1  0.237887  0.084691  0.840731  1
  Li  Li686  1  0.238851  0.597439  0.343317  1
  Li  Li687  1  0.237651  0.586005  0.838186  1
  Li  Li688  1  0.737823  0.089053  0.342972  1
  Li  Li689  1  0.740100  0.085838  0.837244  1
  Li  Li690  1  0.736248  0.589601  0.334209  1
  Li  Li691  1  0.743129  0.584840  0.834277  1
  Li  Li692  1  0.333471  1.011119  0.160493  1
  Li  Li693  1  0.343340  1.008162  0.652983  1
  Li  Li694  1  0.344118  0.506599  0.156610  1
  Li  Li695  1  0.334468  0.505066  0.661434  1
  Li  Li696  1  0.843029  1.007675  0.157139  1
  Li  Li697  1  0.837441  1.008202  0.661655  1
  Li  Li698  1  0.842501  0.512405  0.154796  1
  Li  Li699  1  0.847530  0.509874  0.654402  1
  Li  Li700  1  0.255625  0.411985  0.336214  1
  Li  Li701  1  0.261140  0.406186  0.840500  1
  Li  Li702  1  0.259560  0.910411  0.343305  1
  Li  Li703  1  0.253916  0.915038  0.830922  1
  Li  Li704  1  0.752250  0.411669  0.340526  1
  Li  Li705  1  0.752440  0.420165  0.834160  1
  Li  Li706  1  0.754547  0.908743  0.344953  1
  Li  Li707  1  0.756945  0.914447  0.836055  1
  Li  Li708  1  0.153618  0.991922  0.151697  1
  Li  Li709  1  0.151359  0.991643  0.651425  1
  Li  Li710  1  0.159408  0.490700  0.164258  1
  Li  Li711  1  0.168186  0.499459  0.666350  1
  Li  Li712  1  0.653023  0.990598  0.155366  1
  Li  Li713  1  0.659471  1.001577  0.662349  1
  Li  Li714  1  0.664367  0.495441  0.167228  1
  Li  Li715  1  0.652346  0.491917  0.653987  1
  Li  Li716  1  0.239218  0.414181  0.169789  1
  Li  Li717  1  0.237887  0.413137  0.665078  1
  Li  Li718  1  0.239556  0.907158  0.155106  1
  Li  Li719  1  0.240464  0.909428  0.658648  1
  Li  Li720  1  0.736764  0.415953  0.161477  1
  Li  Li721  1  0.737957  0.410563  0.655727  1
  Li  Li722  1  0.738442  0.911123  0.157518  1
  Li  Li723  1  0.740970  0.909835  0.665301  1
  Li  Li724  1  0.158351  1.006959  0.337173  1
  Li  Li725  1  0.157185  1.013455  0.843495  1
  Li  Li726  1  0.150419  0.506477  0.343939  1
  Li  Li727  1  0.165611  0.508843  0.840071  1
  Li  Li728  1  0.651351  1.012405  0.343609  1
  Li  Li729  1  0.663985  1.012317  0.835498  1
  Li  Li730  1  0.661992  0.504323  0.337754  1
  Li  Li731  1  0.662463  0.501817  0.837675  1
  Li  Li732  1  0.252403  1.087804  0.163789  1
  Li  Li733  1  0.259271  0.091038  0.654863  1
  Li  Li734  1  0.256869  0.595095  0.158095  1
  Li  Li735  1  0.247857  0.585416  0.659874  1
  Li  Li736  1  0.759884  0.090184  0.160418  1
  Li  Li737  1  0.754942  0.089227  0.663310  1
  Li  Li738  1  0.752765  0.593020  0.160087  1
  Li  Li739  1  0.757264  0.595367  0.657777  1
  Li  Li740  1  0.345779  0.993535  0.344778  1
  Li  Li741  1  0.336456  0.991813  0.832832  1
  Li  Li742  1  0.338370  0.492446  0.338715  1
  Li  Li743  1  0.341786  0.489958  0.846109  1
  Li  Li744  1  0.847680  0.992982  0.343024  1
  Li  Li745  1  0.834909  0.993920  0.833448  1
  Li  Li746  1  0.842271  0.491530  0.347770  1
  Li  Li747  1  0.838697  0.496206  0.835308  1
  Li  Li748  1  0.333660  1.086723  0.247597  1
  Li  Li749  1  0.344082  0.097938  0.740012  1
  Li  Li750  1  0.344669  0.597844  0.239932  1
  Li  Li751  1  0.330417  0.595834  0.747056  1
  Li  Li752  1  0.840721  0.094108  0.239013  1
  Li  Li753  1  0.835539  0.090307  0.741950  1
  Li  Li754  1  0.840909  0.596084  0.240013  1
  Li  Li755  1  0.845367  0.599044  0.741273  1
  Li  Li756  1  0.330558  0.415070  0.249231  1
  Li  Li757  1  0.338151  0.407874  0.762783  1
  Li  Li758  1  0.342240  0.908524  0.261711  1
  Li  Li759  1  0.335256  0.919614  0.760286  1
  Li  Li760  1  0.839861  0.404200  0.258680  1
  Li  Li761  1  0.839475  0.412440  0.758179  1
  Li  Li762  1  0.844887  0.907373  0.259424  1
  Li  Li763  1  0.840966  0.910357  0.751372  1
  Li  Li764  1  0.158573  0.414104  0.246973  1
  Li  Li765  1  0.163312  0.414351  0.743266  1
  Li  Li766  1  0.157037  0.901657  0.236821  1
  Li  Li767  1  0.157212  0.907878  0.741142  1
  Li  Li768  1  0.664253  0.415537  0.241047  1
  Li  Li769  1  0.649953  0.405933  0.741298  1
  Li  Li770  1  0.652744  0.911072  0.236618  1
  Li  Li771  1  0.662525  0.911610  0.744170  1
  Li  Li772  1  0.168211  1.088632  0.256113  1
  Li  Li773  1  0.152153  0.097767  0.758775  1
  Li  Li774  1  0.148773  0.597970  0.262169  1
  Li  Li775  1  0.162270  0.591345  0.754051  1
  Li  Li776  1  0.648236  0.096454  0.259143  1
  Li  Li777  1  0.660761  0.087406  0.756430  1
  Li  Li778  1  0.665879  0.585581  0.250903  1
  Li  Li779  1  0.657233  0.586532  0.758972  1
  Li  Li780  1  0.242560  0.334888  1.085807  1
  Li  Li781  1  0.239441  0.340397  0.589142  1
  Li  Li782  1  0.242764  0.846427  0.091132  1
  Li  Li783  1  0.237708  0.842421  0.592097  1
  Li  Li784  1  0.738637  0.336749  0.082559  1
  Li  Li785  1  0.740188  0.340333  0.591548  1
  Li  Li786  1  0.739014  0.845688  0.095191  1
  Li  Li787  1  0.740447  0.838306  0.588421  1
  Li  Li788  1  0.334035  0.261102  0.411969  1
  Li  Li789  1  0.350117  0.258749  0.902206  1
  Li  Li790  1  0.341332  0.760018  0.411449  1
  Li  Li791  1  0.330950  0.762622  0.922402  1
  Li  Li792  1  0.846400  0.261399  0.402524  1
  Li  Li793  1  0.833685  0.260910  0.912948  1
  Li  Li794  1  0.839020  0.763175  0.407608  1
  Li  Li795  1  0.834507  0.759307  0.920108  1
  Li  Li796  1  0.253727  0.168981  1.083501  1
  Li  Li797  1  0.255059  0.158804  0.590767  1
  Li  Li798  1  0.256641  0.655130  0.097219  1
  Li  Li799  1  0.261491  0.663343  0.584526  1
  Li  Li800  1  0.758297  0.156143  0.093369  1
  Li  Li801  1  0.756582  0.171678  0.586854  1
  Li  Li802  1  0.755304  0.656339  0.094383  1
  Li  Li803  1  0.754760  0.658170  0.594570  1
  Li  Li804  1  0.166236  0.242166  0.411867  1
  Li  Li805  1  0.147016  0.242819  0.903841  1
  Li  Li806  1  0.153721  0.739082  0.408190  1
  Li  Li807  1  0.164045  0.752068  0.915048  1
  Li  Li808  1  0.656265  0.239739  0.403402  1
  Li  Li809  1  0.659348  0.253846  0.915494  1
  Li  Li810  1  0.667307  0.747847  0.415107  1
  Li  Li811  1  0.665067  0.740019  0.913584  1
  Li  Li812  1  0.238390  0.164630  0.408468  1
  Li  Li813  1  0.236931  0.162097  0.907306  1
  Li  Li814  1  0.241764  0.658019  0.414527  1
  Li  Li815  1  0.234254  0.665909  0.922468  1
  Li  Li816  1  0.736028  0.167414  0.405126  1
  Li  Li817  1  0.741602  0.160926  0.910873  1
  Li  Li818  1  0.736659  0.666676  0.413705  1
  Li  Li819  1  0.743290  0.669305  0.917394  1
  Li  Li820  1  0.162429  0.265818  1.079128  1
  Li  Li821  1  0.157573  0.255831  0.585375  1
  Li  Li822  1  0.152458  0.759826  0.095584  1
  Li  Li823  1  0.155627  0.761427  0.597599  1
  Li  Li824  1  0.659108  0.260507  0.089243  1
  Li  Li825  1  0.652399  0.262259  0.597358  1
  Li  Li826  1  0.647856  0.760551  0.098405  1
  Li  Li827  1  0.668580  0.759226  0.590704  1
  Li  Li828  1  0.253204  0.337830  0.411536  1
  Li  Li829  1  0.257802  0.345092  0.907376  1
  Li  Li830  1  0.258631  0.841847  0.411366  1
  Li  Li831  1  0.251270  0.837027  0.913951  1
  Li  Li832  1  0.757829  0.343456  0.406299  1
  Li  Li833  1  0.748074  0.332568  0.914057  1
  Li  Li834  1  0.753851  0.849652  0.412106  1
  Li  Li835  1  0.755325  0.833736  0.917307  1
  Li  Li836  1  0.333246  0.244380  1.082354  1
  Li  Li837  1  0.340505  0.240147  0.595941  1
  Li  Li838  1  0.341338  0.739824  0.099357  1
  Li  Li839  1  0.335118  0.747463  0.592370  1
  Li  Li840  1  0.843088  0.240651  0.094449  1
  Li  Li841  1  0.831840  0.252223  0.586619  1
  Li  Li842  1  0.843670  0.741000  0.096817  1
  Li  Li843  1  0.841721  0.741218  0.597504  1
  Li  Li844  1  0.344735  0.344875  0.993050  1
  Li  Li845  1  0.334628  0.338875  0.494988  1
  Li  Li846  1  0.337174  0.833341  0.987944  1
  Li  Li847  1  0.345547  0.845154  0.493031  1
  Li  Li848  1  0.837099  0.337255  0.994846  1
  Li  Li849  1  0.845732  0.344744  0.490007  1
  Li  Li850  1  0.838891  0.838437  0.991925  1
  Li  Li851  1  0.837473  0.846726  0.491190  1
  Li  Li852  1  0.337019  0.162130  1.007786  1
  Li  Li853  1  0.342426  0.154418  0.509442  1
  Li  Li854  1  0.344026  0.651518  1.010097  1
  Li  Li855  1  0.335563  0.665205  0.502663  1
  Li  Li856  1  0.844367  0.154021  1.010682  1
  Li  Li857  1  0.829765  0.166036  0.504034  1
  Li  Li858  1  0.842663  0.653791  1.007948  1
  Li  Li859  1  0.839940  0.656869  0.510485  1
  Li  Li860  1  0.152900  0.155747  0.992240  1
  Li  Li861  1  0.160289  0.164950  0.489355  1
  Li  Li862  1  0.161667  0.656483  0.992732  1
  Li  Li863  1  0.157666  0.661985  0.487296  1
  Li  Li864  1  0.659571  0.162680  0.990374  1
  Li  Li865  1  0.649287  0.157696  0.488814  1
  Li  Li866  1  0.659593  0.661764  0.992622  1
  Li  Li867  1  0.667126  0.663198  0.491092  1
  Li  Li868  1  0.156923  0.335376  1.010137  1
  Li  Li869  1  0.159640  0.334779  0.502084  1
  Li  Li870  1  0.152852  0.849939  1.005838  1
  Li  Li871  1  0.156840  0.846907  0.512991  1
  Li  Li872  1  0.663765  0.335707  0.992578  1
  Li  Li873  1  0.652337  0.345877  0.509747  1
  Li  Li874  1  0.653101  0.845436  1.008367  1
  Li  Li875  1  0.663199  0.839913  0.500953  1
