# generated using pymatgen
data_Li
_symmetry_space_group_name_H-M   'P 1'
_cell_length_a   10.14134979
_cell_length_b   10.14134979
_cell_length_c   10.14134979
_cell_angle_alpha   90.00000000
_cell_angle_beta   90.00000000
_cell_angle_gamma   90.00000000
_symmetry_Int_Tables_number   1
_chemical_formula_structural   Li
_chemical_formula_sum   Li18432
_cell_volume   1043.00715480
_cell_formula_units_Z   18432
loop_
 _symmetry_equiv_pos_site_id
 _symmetry_equiv_pos_as_xyz
  1  'x, y, z'
loop_
 _atom_site_type_symbol
 _atom_site_label
 _atom_site_symmetry_multiplicity
 _atom_site_fract_x
 _atom_site_fract_y
 _atom_site_fract_z
 _atom_site_occupancy
  Li  Li0  1  0.192345  0.463932  0.696743  1
  Li  Li1  1  0.463932  0.807655  0.303257  1
  Li  Li2  1  0.807655  0.536068  0.696743  1
  Li  Li3  1  0.536068  0.192345  0.303257  1
  Li  Li4  1  0.192345  0.536068  0.303257  1
  Li  Li5  1  0.536068  0.807655  0.696743  1
  Li  Li6  1  0.807655  0.463932  0.303257  1
  Li  Li7  1  0.463932  0.192345  0.696743  1
  Li  Li8  1  0.696743  0.192345  0.463932  1
  Li  Li9  1  0.192345  0.303257  0.536068  1
  Li  Li10  1  0.303257  0.807655  0.463932  1
  Li  Li11  1  0.807655  0.696743  0.536068  1
  Li  Li12  1  0.696743  0.807655  0.536068  1
  Li  Li13  1  0.807655  0.303257  0.463932  1
  Li  Li14  1  0.303257  0.192345  0.536068  1
  Li  Li15  1  0.192345  0.696743  0.463932  1
  Li  Li16  1  0.463932  0.696743  0.192345  1
  Li  Li17  1  0.463932  0.303257  0.807655  1
  Li  Li18  1  0.303257  0.536068  0.192345  1
  Li  Li19  1  0.536068  0.696743  0.807655  1
  Li  Li20  1  0.696743  0.463932  0.192345  1
  Li  Li21  1  0.536068  0.303257  0.192345  1
  Li  Li22  1  0.303257  0.463932  0.807655  1
  Li  Li23  1  0.696743  0.536068  0.807655  1
  Li  Li24  1  0.192345  0.963932  0.196743  1
  Li  Li25  1  0.463932  0.307655  0.803257  1
  Li  Li26  1  0.807655  0.036068  0.196743  1
  Li  Li27  1  0.536068  0.692345  0.803257  1
  Li  Li28  1  0.192345  0.036068  0.803257  1
  Li  Li29  1  0.536068  0.307655  0.196743  1
  Li  Li30  1  0.807655  0.963932  0.803257  1
  Li  Li31  1  0.463932  0.692345  0.196743  1
  Li  Li32  1  0.696743  0.692345  0.963932  1
  Li  Li33  1  0.192345  0.803257  0.036068  1
  Li  Li34  1  0.303257  0.307655  0.963932  1
  Li  Li35  1  0.807655  0.196743  0.036068  1
  Li  Li36  1  0.696743  0.307655  0.036068  1
  Li  Li37  1  0.807655  0.803257  0.963932  1
  Li  Li38  1  0.303257  0.692345  0.036068  1
  Li  Li39  1  0.192345  0.196743  0.963932  1
  Li  Li40  1  0.463932  0.196743  0.692345  1
  Li  Li41  1  0.463932  0.803257  0.307655  1
  Li  Li42  1  0.303257  0.036068  0.692345  1
  Li  Li43  1  0.536068  0.196743  0.307655  1
  Li  Li44  1  0.696743  0.963932  0.692345  1
  Li  Li45  1  0.536068  0.803257  0.692345  1
  Li  Li46  1  0.303257  0.963932  0.307655  1
  Li  Li47  1  0.696743  0.036068  0.307655  1
  Li  Li48  1  0.692345  0.463932  0.196743  1
  Li  Li49  1  0.963932  0.807655  0.803257  1
  Li  Li50  1  0.307655  0.536068  0.196743  1
  Li  Li51  1  0.036068  0.192345  0.803257  1
  Li  Li52  1  0.692345  0.536068  0.803257  1
  Li  Li53  1  0.036068  0.807655  0.196743  1
  Li  Li54  1  0.307655  0.463932  0.803257  1
  Li  Li55  1  0.963932  0.192345  0.196743  1
  Li  Li56  1  0.196743  0.192345  0.963932  1
  Li  Li57  1  0.692345  0.303257  0.036068  1
  Li  Li58  1  0.803257  0.807655  0.963932  1
  Li  Li59  1  0.307655  0.696743  0.036068  1
  Li  Li60  1  0.196743  0.807655  0.036068  1
  Li  Li61  1  0.307655  0.303257  0.963932  1
  Li  Li62  1  0.803257  0.192345  0.036068  1
  Li  Li63  1  0.692345  0.696743  0.963932  1
  Li  Li64  1  0.963932  0.696743  0.692345  1
  Li  Li65  1  0.963932  0.303257  0.307655  1
  Li  Li66  1  0.803257  0.536068  0.692345  1
  Li  Li67  1  0.036068  0.696743  0.307655  1
  Li  Li68  1  0.196743  0.463932  0.692345  1
  Li  Li69  1  0.036068  0.303257  0.692345  1
  Li  Li70  1  0.803257  0.463932  0.307655  1
  Li  Li71  1  0.196743  0.536068  0.307655  1
  Li  Li72  1  0.692345  0.963932  0.696743  1
  Li  Li73  1  0.963932  0.307655  0.303257  1
  Li  Li74  1  0.307655  0.036068  0.696743  1
  Li  Li75  1  0.036068  0.692345  0.303257  1
  Li  Li76  1  0.692345  0.036068  0.303257  1
  Li  Li77  1  0.036068  0.307655  0.696743  1
  Li  Li78  1  0.307655  0.963932  0.303257  1
  Li  Li79  1  0.963932  0.692345  0.696743  1
  Li  Li80  1  0.196743  0.692345  0.463932  1
  Li  Li81  1  0.692345  0.803257  0.536068  1
  Li  Li82  1  0.803257  0.307655  0.463932  1
  Li  Li83  1  0.307655  0.196743  0.536068  1
  Li  Li84  1  0.196743  0.307655  0.536068  1
  Li  Li85  1  0.307655  0.803257  0.463932  1
  Li  Li86  1  0.803257  0.692345  0.536068  1
  Li  Li87  1  0.692345  0.196743  0.463932  1
  Li  Li88  1  0.963932  0.196743  0.192345  1
  Li  Li89  1  0.963932  0.803257  0.807655  1
  Li  Li90  1  0.803257  0.036068  0.192345  1
  Li  Li91  1  0.036068  0.196743  0.807655  1
  Li  Li92  1  0.196743  0.963932  0.192345  1
  Li  Li93  1  0.036068  0.803257  0.192345  1
  Li  Li94  1  0.803257  0.963932  0.807655  1
  Li  Li95  1  0.196743  0.036068  0.807655  1
  Li  Li96  1  0.317469  0.024818  0.699627  1
  Li  Li97  1  0.024818  0.682531  0.300373  1
  Li  Li98  1  0.682531  0.975182  0.699627  1
  Li  Li99  1  0.975182  0.317469  0.300373  1
  Li  Li100  1  0.317469  0.975182  0.300373  1
  Li  Li101  1  0.975182  0.682531  0.699627  1
  Li  Li102  1  0.682531  0.024818  0.300373  1
  Li  Li103  1  0.024818  0.317469  0.699627  1
  Li  Li104  1  0.699627  0.317469  0.024818  1
  Li  Li105  1  0.317469  0.300373  0.975182  1
  Li  Li106  1  0.300373  0.682531  0.024818  1
  Li  Li107  1  0.682531  0.699627  0.975182  1
  Li  Li108  1  0.699627  0.682531  0.975182  1
  Li  Li109  1  0.682531  0.300373  0.024818  1
  Li  Li110  1  0.300373  0.317469  0.975182  1
  Li  Li111  1  0.317469  0.699627  0.024818  1
  Li  Li112  1  0.024818  0.699627  0.317469  1
  Li  Li113  1  0.024818  0.300373  0.682531  1
  Li  Li114  1  0.300373  0.975182  0.317469  1
  Li  Li115  1  0.975182  0.699627  0.682531  1
  Li  Li116  1  0.699627  0.024818  0.317469  1
  Li  Li117  1  0.975182  0.300373  0.317469  1
  Li  Li118  1  0.300373  0.024818  0.682531  1
  Li  Li119  1  0.699627  0.975182  0.682531  1
  Li  Li120  1  0.317469  0.524818  0.199627  1
  Li  Li121  1  0.024818  0.182531  0.800373  1
  Li  Li122  1  0.682531  0.475182  0.199627  1
  Li  Li123  1  0.975182  0.817469  0.800373  1
  Li  Li124  1  0.317469  0.475182  0.800373  1
  Li  Li125  1  0.975182  0.182531  0.199627  1
  Li  Li126  1  0.682531  0.524818  0.800373  1
  Li  Li127  1  0.024818  0.817469  0.199627  1
  Li  Li128  1  0.699627  0.817469  0.524818  1
  Li  Li129  1  0.317469  0.800373  0.475182  1
  Li  Li130  1  0.300373  0.182531  0.524818  1
  Li  Li131  1  0.682531  0.199627  0.475182  1
  Li  Li132  1  0.699627  0.182531  0.475182  1
  Li  Li133  1  0.682531  0.800373  0.524818  1
  Li  Li134  1  0.300373  0.817469  0.475182  1
  Li  Li135  1  0.317469  0.199627  0.524818  1
  Li  Li136  1  0.024818  0.199627  0.817469  1
  Li  Li137  1  0.024818  0.800373  0.182531  1
  Li  Li138  1  0.300373  0.475182  0.817469  1
  Li  Li139  1  0.975182  0.199627  0.182531  1
  Li  Li140  1  0.699627  0.524818  0.817469  1
  Li  Li141  1  0.975182  0.800373  0.817469  1
  Li  Li142  1  0.300373  0.524818  0.182531  1
  Li  Li143  1  0.699627  0.475182  0.182531  1
  Li  Li144  1  0.817469  0.024818  0.199627  1
  Li  Li145  1  0.524818  0.682531  0.800373  1
  Li  Li146  1  0.182531  0.975182  0.199627  1
  Li  Li147  1  0.475182  0.317469  0.800373  1
  Li  Li148  1  0.817469  0.975182  0.800373  1
  Li  Li149  1  0.475182  0.682531  0.199627  1
  Li  Li150  1  0.182531  0.024818  0.800373  1
  Li  Li151  1  0.524818  0.317469  0.199627  1
  Li  Li152  1  0.199627  0.317469  0.524818  1
  Li  Li153  1  0.817469  0.300373  0.475182  1
  Li  Li154  1  0.800373  0.682531  0.524818  1
  Li  Li155  1  0.182531  0.699627  0.475182  1
  Li  Li156  1  0.199627  0.682531  0.475182  1
  Li  Li157  1  0.182531  0.300373  0.524818  1
  Li  Li158  1  0.800373  0.317469  0.475182  1
  Li  Li159  1  0.817469  0.699627  0.524818  1
  Li  Li160  1  0.524818  0.699627  0.817469  1
  Li  Li161  1  0.524818  0.300373  0.182531  1
  Li  Li162  1  0.800373  0.975182  0.817469  1
  Li  Li163  1  0.475182  0.699627  0.182531  1
  Li  Li164  1  0.199627  0.024818  0.817469  1
  Li  Li165  1  0.475182  0.300373  0.817469  1
  Li  Li166  1  0.800373  0.024818  0.182531  1
  Li  Li167  1  0.199627  0.975182  0.182531  1
  Li  Li168  1  0.817469  0.524818  0.699627  1
  Li  Li169  1  0.524818  0.182531  0.300373  1
  Li  Li170  1  0.182531  0.475182  0.699627  1
  Li  Li171  1  0.475182  0.817469  0.300373  1
  Li  Li172  1  0.817469  0.475182  0.300373  1
  Li  Li173  1  0.475182  0.182531  0.699627  1
  Li  Li174  1  0.182531  0.524818  0.300373  1
  Li  Li175  1  0.524818  0.817469  0.699627  1
  Li  Li176  1  0.199627  0.817469  0.024818  1
  Li  Li177  1  0.817469  0.800373  0.975182  1
  Li  Li178  1  0.800373  0.182531  0.024818  1
  Li  Li179  1  0.182531  0.199627  0.975182  1
  Li  Li180  1  0.199627  0.182531  0.975182  1
  Li  Li181  1  0.182531  0.800373  0.024818  1
  Li  Li182  1  0.800373  0.817469  0.975182  1
  Li  Li183  1  0.817469  0.199627  0.024818  1
  Li  Li184  1  0.524818  0.199627  0.317469  1
  Li  Li185  1  0.524818  0.800373  0.682531  1
  Li  Li186  1  0.800373  0.475182  0.317469  1
  Li  Li187  1  0.475182  0.199627  0.682531  1
  Li  Li188  1  0.199627  0.524818  0.317469  1
  Li  Li189  1  0.475182  0.800373  0.317469  1
  Li  Li190  1  0.800373  0.524818  0.682531  1
  Li  Li191  1  0.199627  0.475182  0.682531  1
  Li  Li192  1  0.254835  0.420216  0.915624  1
  Li  Li193  1  0.420216  0.745165  0.084376  1
  Li  Li194  1  0.745165  0.579784  0.915624  1
  Li  Li195  1  0.579784  0.254835  0.084376  1
  Li  Li196  1  0.254835  0.579784  0.084376  1
  Li  Li197  1  0.579784  0.745165  0.915624  1
  Li  Li198  1  0.745165  0.420216  0.084376  1
  Li  Li199  1  0.420216  0.254835  0.915624  1
  Li  Li200  1  0.915624  0.254835  0.420216  1
  Li  Li201  1  0.254835  0.084376  0.579784  1
  Li  Li202  1  0.084376  0.745165  0.420216  1
  Li  Li203  1  0.745165  0.915624  0.579784  1
  Li  Li204  1  0.915624  0.745165  0.579784  1
  Li  Li205  1  0.745165  0.084376  0.420216  1
  Li  Li206  1  0.084376  0.254835  0.579784  1
  Li  Li207  1  0.254835  0.915624  0.420216  1
  Li  Li208  1  0.420216  0.915624  0.254835  1
  Li  Li209  1  0.420216  0.084376  0.745165  1
  Li  Li210  1  0.084376  0.579784  0.254835  1
  Li  Li211  1  0.579784  0.915624  0.745165  1
  Li  Li212  1  0.915624  0.420216  0.254835  1
  Li  Li213  1  0.579784  0.084376  0.254835  1
  Li  Li214  1  0.084376  0.420216  0.745165  1
  Li  Li215  1  0.915624  0.579784  0.745165  1
  Li  Li216  1  0.254835  0.920216  0.415624  1
  Li  Li217  1  0.420216  0.245165  0.584376  1
  Li  Li218  1  0.745165  0.079784  0.415624  1
  Li  Li219  1  0.579784  0.754835  0.584376  1
  Li  Li220  1  0.254835  0.079784  0.584376  1
  Li  Li221  1  0.579784  0.245165  0.415624  1
  Li  Li222  1  0.745165  0.920216  0.584376  1
  Li  Li223  1  0.420216  0.754835  0.415624  1
  Li  Li224  1  0.915624  0.754835  0.920216  1
  Li  Li225  1  0.254835  0.584376  0.079784  1
  Li  Li226  1  0.084376  0.245165  0.920216  1
  Li  Li227  1  0.745165  0.415624  0.079784  1
  Li  Li228  1  0.915624  0.245165  0.079784  1
  Li  Li229  1  0.745165  0.584376  0.920216  1
  Li  Li230  1  0.084376  0.754835  0.079784  1
  Li  Li231  1  0.254835  0.415624  0.920216  1
  Li  Li232  1  0.420216  0.415624  0.754835  1
  Li  Li233  1  0.420216  0.584376  0.245165  1
  Li  Li234  1  0.084376  0.079784  0.754835  1
  Li  Li235  1  0.579784  0.415624  0.245165  1
  Li  Li236  1  0.915624  0.920216  0.754835  1
  Li  Li237  1  0.579784  0.584376  0.754835  1
  Li  Li238  1  0.084376  0.920216  0.245165  1
  Li  Li239  1  0.915624  0.079784  0.245165  1
  Li  Li240  1  0.754835  0.420216  0.415624  1
  Li  Li241  1  0.920216  0.745165  0.584376  1
  Li  Li242  1  0.245165  0.579784  0.415624  1
  Li  Li243  1  0.079784  0.254835  0.584376  1
  Li  Li244  1  0.754835  0.579784  0.584376  1
  Li  Li245  1  0.079784  0.745165  0.415624  1
  Li  Li246  1  0.245165  0.420216  0.584376  1
  Li  Li247  1  0.920216  0.254835  0.415624  1
  Li  Li248  1  0.415624  0.254835  0.920216  1
  Li  Li249  1  0.754835  0.084376  0.079784  1
  Li  Li250  1  0.584376  0.745165  0.920216  1
  Li  Li251  1  0.245165  0.915624  0.079784  1
  Li  Li252  1  0.415624  0.745165  0.079784  1
  Li  Li253  1  0.245165  0.084376  0.920216  1
  Li  Li254  1  0.584376  0.254835  0.079784  1
  Li  Li255  1  0.754835  0.915624  0.920216  1
  Li  Li256  1  0.920216  0.915624  0.754835  1
  Li  Li257  1  0.920216  0.084376  0.245165  1
  Li  Li258  1  0.584376  0.579784  0.754835  1
  Li  Li259  1  0.079784  0.915624  0.245165  1
  Li  Li260  1  0.415624  0.420216  0.754835  1
  Li  Li261  1  0.079784  0.084376  0.754835  1
  Li  Li262  1  0.584376  0.420216  0.245165  1
  Li  Li263  1  0.415624  0.579784  0.245165  1
  Li  Li264  1  0.754835  0.920216  0.915624  1
  Li  Li265  1  0.920216  0.245165  0.084376  1
  Li  Li266  1  0.245165  0.079784  0.915624  1
  Li  Li267  1  0.079784  0.754835  0.084376  1
  Li  Li268  1  0.754835  0.079784  0.084376  1
  Li  Li269  1  0.079784  0.245165  0.915624  1
  Li  Li270  1  0.245165  0.920216  0.084376  1
  Li  Li271  1  0.920216  0.754835  0.915624  1
  Li  Li272  1  0.415624  0.754835  0.420216  1
  Li  Li273  1  0.754835  0.584376  0.579784  1
  Li  Li274  1  0.584376  0.245165  0.420216  1
  Li  Li275  1  0.245165  0.415624  0.579784  1
  Li  Li276  1  0.415624  0.245165  0.579784  1
  Li  Li277  1  0.245165  0.584376  0.420216  1
  Li  Li278  1  0.584376  0.754835  0.579784  1
  Li  Li279  1  0.754835  0.415624  0.420216  1
  Li  Li280  1  0.920216  0.415624  0.254835  1
  Li  Li281  1  0.920216  0.584376  0.745165  1
  Li  Li282  1  0.584376  0.079784  0.254835  1
  Li  Li283  1  0.079784  0.415624  0.745165  1
  Li  Li284  1  0.415624  0.920216  0.254835  1
  Li  Li285  1  0.079784  0.584376  0.254835  1
  Li  Li286  1  0.584376  0.920216  0.745165  1
  Li  Li287  1  0.415624  0.079784  0.745165  1
  Li  Li288  1  0.019270  0.199956  0.780349  1
  Li  Li289  1  0.199956  0.980730  0.219651  1
  Li  Li290  1  0.980730  0.800044  0.780349  1
  Li  Li291  1  0.800044  0.019270  0.219651  1
  Li  Li292  1  0.019270  0.800044  0.219651  1
  Li  Li293  1  0.800044  0.980730  0.780349  1
  Li  Li294  1  0.980730  0.199956  0.219651  1
  Li  Li295  1  0.199956  0.019270  0.780349  1
  Li  Li296  1  0.780349  0.019270  0.199956  1
  Li  Li297  1  0.019270  0.219651  0.800044  1
  Li  Li298  1  0.219651  0.980730  0.199956  1
  Li  Li299  1  0.980730  0.780349  0.800044  1
  Li  Li300  1  0.780349  0.980730  0.800044  1
  Li  Li301  1  0.980730  0.219651  0.199956  1
  Li  Li302  1  0.219651  0.019270  0.800044  1
  Li  Li303  1  0.019270  0.780349  0.199956  1
  Li  Li304  1  0.199956  0.780349  0.019270  1
  Li  Li305  1  0.199956  0.219651  0.980730  1
  Li  Li306  1  0.219651  0.800044  0.019270  1
  Li  Li307  1  0.800044  0.780349  0.980730  1
  Li  Li308  1  0.780349  0.199956  0.019270  1
  Li  Li309  1  0.800044  0.219651  0.019270  1
  Li  Li310  1  0.219651  0.199956  0.980730  1
  Li  Li311  1  0.780349  0.800044  0.980730  1
  Li  Li312  1  0.019270  0.699956  0.280349  1
  Li  Li313  1  0.199956  0.480730  0.719651  1
  Li  Li314  1  0.980730  0.300044  0.280349  1
  Li  Li315  1  0.800044  0.519270  0.719651  1
  Li  Li316  1  0.019270  0.300044  0.719651  1
  Li  Li317  1  0.800044  0.480730  0.280349  1
  Li  Li318  1  0.980730  0.699956  0.719651  1
  Li  Li319  1  0.199956  0.519270  0.280349  1
  Li  Li320  1  0.780349  0.519270  0.699956  1
  Li  Li321  1  0.019270  0.719651  0.300044  1
  Li  Li322  1  0.219651  0.480730  0.699956  1
  Li  Li323  1  0.980730  0.280349  0.300044  1
  Li  Li324  1  0.780349  0.480730  0.300044  1
  Li  Li325  1  0.980730  0.719651  0.699956  1
  Li  Li326  1  0.219651  0.519270  0.300044  1
  Li  Li327  1  0.019270  0.280349  0.699956  1
  Li  Li328  1  0.199956  0.280349  0.519270  1
  Li  Li329  1  0.199956  0.719651  0.480730  1
  Li  Li330  1  0.219651  0.300044  0.519270  1
  Li  Li331  1  0.800044  0.280349  0.480730  1
  Li  Li332  1  0.780349  0.699956  0.519270  1
  Li  Li333  1  0.800044  0.719651  0.519270  1
  Li  Li334  1  0.219651  0.699956  0.480730  1
  Li  Li335  1  0.780349  0.300044  0.480730  1
  Li  Li336  1  0.519270  0.199956  0.280349  1
  Li  Li337  1  0.699956  0.980730  0.719651  1
  Li  Li338  1  0.480730  0.800044  0.280349  1
  Li  Li339  1  0.300044  0.019270  0.719651  1
  Li  Li340  1  0.519270  0.800044  0.719651  1
  Li  Li341  1  0.300044  0.980730  0.280349  1
  Li  Li342  1  0.480730  0.199956  0.719651  1
  Li  Li343  1  0.699956  0.019270  0.280349  1
  Li  Li344  1  0.280349  0.019270  0.699956  1
  Li  Li345  1  0.519270  0.219651  0.300044  1
  Li  Li346  1  0.719651  0.980730  0.699956  1
  Li  Li347  1  0.480730  0.780349  0.300044  1
  Li  Li348  1  0.280349  0.980730  0.300044  1
  Li  Li349  1  0.480730  0.219651  0.699956  1
  Li  Li350  1  0.719651  0.019270  0.300044  1
  Li  Li351  1  0.519270  0.780349  0.699956  1
  Li  Li352  1  0.699956  0.780349  0.519270  1
  Li  Li353  1  0.699956  0.219651  0.480730  1
  Li  Li354  1  0.719651  0.800044  0.519270  1
  Li  Li355  1  0.300044  0.780349  0.480730  1
  Li  Li356  1  0.280349  0.199956  0.519270  1
  Li  Li357  1  0.300044  0.219651  0.519270  1
  Li  Li358  1  0.719651  0.199956  0.480730  1
  Li  Li359  1  0.280349  0.800044  0.480730  1
  Li  Li360  1  0.519270  0.699956  0.780349  1
  Li  Li361  1  0.699956  0.480730  0.219651  1
  Li  Li362  1  0.480730  0.300044  0.780349  1
  Li  Li363  1  0.300044  0.519270  0.219651  1
  Li  Li364  1  0.519270  0.300044  0.219651  1
  Li  Li365  1  0.300044  0.480730  0.780349  1
  Li  Li366  1  0.480730  0.699956  0.219651  1
  Li  Li367  1  0.699956  0.519270  0.780349  1
  Li  Li368  1  0.280349  0.519270  0.199956  1
  Li  Li369  1  0.519270  0.719651  0.800044  1
  Li  Li370  1  0.719651  0.480730  0.199956  1
  Li  Li371  1  0.480730  0.280349  0.800044  1
  Li  Li372  1  0.280349  0.480730  0.800044  1
  Li  Li373  1  0.480730  0.719651  0.199956  1
  Li  Li374  1  0.719651  0.519270  0.800044  1
  Li  Li375  1  0.519270  0.280349  0.199956  1
  Li  Li376  1  0.699956  0.280349  0.019270  1
  Li  Li377  1  0.699956  0.719651  0.980730  1
  Li  Li378  1  0.719651  0.300044  0.019270  1
  Li  Li379  1  0.300044  0.280349  0.980730  1
  Li  Li380  1  0.280349  0.699956  0.019270  1
  Li  Li381  1  0.300044  0.719651  0.019270  1
  Li  Li382  1  0.719651  0.699956  0.980730  1
  Li  Li383  1  0.280349  0.300044  0.980730  1
  Li  Li384  1  0.473551  0.180401  0.696828  1
  Li  Li385  1  0.180401  0.526449  0.303172  1
  Li  Li386  1  0.526449  0.819599  0.696828  1
  Li  Li387  1  0.819599  0.473551  0.303172  1
  Li  Li388  1  0.473551  0.819599  0.303172  1
  Li  Li389  1  0.819599  0.526449  0.696828  1
  Li  Li390  1  0.526449  0.180401  0.303172  1
  Li  Li391  1  0.180401  0.473551  0.696828  1
  Li  Li392  1  0.696828  0.473551  0.180401  1
  Li  Li393  1  0.473551  0.303172  0.819599  1
  Li  Li394  1  0.303172  0.526449  0.180401  1
  Li  Li395  1  0.526449  0.696828  0.819599  1
  Li  Li396  1  0.696828  0.526449  0.819599  1
  Li  Li397  1  0.526449  0.303172  0.180401  1
  Li  Li398  1  0.303172  0.473551  0.819599  1
  Li  Li399  1  0.473551  0.696828  0.180401  1
  Li  Li400  1  0.180401  0.696828  0.473551  1
  Li  Li401  1  0.180401  0.303172  0.526449  1
  Li  Li402  1  0.303172  0.819599  0.473551  1
  Li  Li403  1  0.819599  0.696828  0.526449  1
  Li  Li404  1  0.696828  0.180401  0.473551  1
  Li  Li405  1  0.819599  0.303172  0.473551  1
  Li  Li406  1  0.303172  0.180401  0.526449  1
  Li  Li407  1  0.696828  0.819599  0.526449  1
  Li  Li408  1  0.473551  0.680401  0.196828  1
  Li  Li409  1  0.180401  0.026449  0.803172  1
  Li  Li410  1  0.526449  0.319599  0.196828  1
  Li  Li411  1  0.819599  0.973551  0.803172  1
  Li  Li412  1  0.473551  0.319599  0.803172  1
  Li  Li413  1  0.819599  0.026449  0.196828  1
  Li  Li414  1  0.526449  0.680401  0.803172  1
  Li  Li415  1  0.180401  0.973551  0.196828  1
  Li  Li416  1  0.696828  0.973551  0.680401  1
  Li  Li417  1  0.473551  0.803172  0.319599  1
  Li  Li418  1  0.303172  0.026449  0.680401  1
  Li  Li419  1  0.526449  0.196828  0.319599  1
  Li  Li420  1  0.696828  0.026449  0.319599  1
  Li  Li421  1  0.526449  0.803172  0.680401  1
  Li  Li422  1  0.303172  0.973551  0.319599  1
  Li  Li423  1  0.473551  0.196828  0.680401  1
  Li  Li424  1  0.180401  0.196828  0.973551  1
  Li  Li425  1  0.180401  0.803172  0.026449  1
  Li  Li426  1  0.303172  0.319599  0.973551  1
  Li  Li427  1  0.819599  0.196828  0.026449  1
  Li  Li428  1  0.696828  0.680401  0.973551  1
  Li  Li429  1  0.819599  0.803172  0.973551  1
  Li  Li430  1  0.303172  0.680401  0.026449  1
  Li  Li431  1  0.696828  0.319599  0.026449  1
  Li  Li432  1  0.973551  0.180401  0.196828  1
  Li  Li433  1  0.680401  0.526449  0.803172  1
  Li  Li434  1  0.026449  0.819599  0.196828  1
  Li  Li435  1  0.319599  0.473551  0.803172  1
  Li  Li436  1  0.973551  0.819599  0.803172  1
  Li  Li437  1  0.319599  0.526449  0.196828  1
  Li  Li438  1  0.026449  0.180401  0.803172  1
  Li  Li439  1  0.680401  0.473551  0.196828  1
  Li  Li440  1  0.196828  0.473551  0.680401  1
  Li  Li441  1  0.973551  0.303172  0.319599  1
  Li  Li442  1  0.803172  0.526449  0.680401  1
  Li  Li443  1  0.026449  0.696828  0.319599  1
  Li  Li444  1  0.196828  0.526449  0.319599  1
  Li  Li445  1  0.026449  0.303172  0.680401  1
  Li  Li446  1  0.803172  0.473551  0.319599  1
  Li  Li447  1  0.973551  0.696828  0.680401  1
  Li  Li448  1  0.680401  0.696828  0.973551  1
  Li  Li449  1  0.680401  0.303172  0.026449  1
  Li  Li450  1  0.803172  0.819599  0.973551  1
  Li  Li451  1  0.319599  0.696828  0.026449  1
  Li  Li452  1  0.196828  0.180401  0.973551  1
  Li  Li453  1  0.319599  0.303172  0.973551  1
  Li  Li454  1  0.803172  0.180401  0.026449  1
  Li  Li455  1  0.196828  0.819599  0.026449  1
  Li  Li456  1  0.973551  0.680401  0.696828  1
  Li  Li457  1  0.680401  0.026449  0.303172  1
  Li  Li458  1  0.026449  0.319599  0.696828  1
  Li  Li459  1  0.319599  0.973551  0.303172  1
  Li  Li460  1  0.973551  0.319599  0.303172  1
  Li  Li461  1  0.319599  0.026449  0.696828  1
  Li  Li462  1  0.026449  0.680401  0.303172  1
  Li  Li463  1  0.680401  0.973551  0.696828  1
  Li  Li464  1  0.196828  0.973551  0.180401  1
  Li  Li465  1  0.973551  0.803172  0.819599  1
  Li  Li466  1  0.803172  0.026449  0.180401  1
  Li  Li467  1  0.026449  0.196828  0.819599  1
  Li  Li468  1  0.196828  0.026449  0.819599  1
  Li  Li469  1  0.026449  0.803172  0.180401  1
  Li  Li470  1  0.803172  0.973551  0.819599  1
  Li  Li471  1  0.973551  0.196828  0.180401  1
  Li  Li472  1  0.680401  0.196828  0.473551  1
  Li  Li473  1  0.680401  0.803172  0.526449  1
  Li  Li474  1  0.803172  0.319599  0.473551  1
  Li  Li475  1  0.319599  0.196828  0.526449  1
  Li  Li476  1  0.196828  0.680401  0.473551  1
  Li  Li477  1  0.319599  0.803172  0.473551  1
  Li  Li478  1  0.803172  0.680401  0.526449  1
  Li  Li479  1  0.196828  0.319599  0.526449  1
  Li  Li480  1  0.204755  0.283641  0.504614  1
  Li  Li481  1  0.283641  0.795245  0.495386  1
  Li  Li482  1  0.795245  0.716359  0.504614  1
  Li  Li483  1  0.716359  0.204755  0.495386  1
  Li  Li484  1  0.204755  0.716359  0.495386  1
  Li  Li485  1  0.716359  0.795245  0.504614  1
  Li  Li486  1  0.795245  0.283641  0.495386  1
  Li  Li487  1  0.283641  0.204755  0.504614  1
  Li  Li488  1  0.504614  0.204755  0.283641  1
  Li  Li489  1  0.204755  0.495386  0.716359  1
  Li  Li490  1  0.495386  0.795245  0.283641  1
  Li  Li491  1  0.795245  0.504614  0.716359  1
  Li  Li492  1  0.504614  0.795245  0.716359  1
  Li  Li493  1  0.795245  0.495386  0.283641  1
  Li  Li494  1  0.495386  0.204755  0.716359  1
  Li  Li495  1  0.204755  0.504614  0.283641  1
  Li  Li496  1  0.283641  0.504614  0.204755  1
  Li  Li497  1  0.283641  0.495386  0.795245  1
  Li  Li498  1  0.495386  0.716359  0.204755  1
  Li  Li499  1  0.716359  0.504614  0.795245  1
  Li  Li500  1  0.504614  0.283641  0.204755  1
  Li  Li501  1  0.716359  0.495386  0.204755  1
  Li  Li502  1  0.495386  0.283641  0.795245  1
  Li  Li503  1  0.504614  0.716359  0.795245  1
  Li  Li504  1  0.204755  0.783641  0.004614  1
  Li  Li505  1  0.283641  0.295245  0.995386  1
  Li  Li506  1  0.795245  0.216359  0.004614  1
  Li  Li507  1  0.716359  0.704755  0.995386  1
  Li  Li508  1  0.204755  0.216359  0.995386  1
  Li  Li509  1  0.716359  0.295245  0.004614  1
  Li  Li510  1  0.795245  0.783641  0.995386  1
  Li  Li511  1  0.283641  0.704755  0.004614  1
  Li  Li512  1  0.504614  0.704755  0.783641  1
  Li  Li513  1  0.204755  0.995386  0.216359  1
  Li  Li514  1  0.495386  0.295245  0.783641  1
  Li  Li515  1  0.795245  0.004614  0.216359  1
  Li  Li516  1  0.504614  0.295245  0.216359  1
  Li  Li517  1  0.795245  0.995386  0.783641  1
  Li  Li518  1  0.495386  0.704755  0.216359  1
  Li  Li519  1  0.204755  0.004614  0.783641  1
  Li  Li520  1  0.283641  0.004614  0.704755  1
  Li  Li521  1  0.283641  0.995386  0.295245  1
  Li  Li522  1  0.495386  0.216359  0.704755  1
  Li  Li523  1  0.716359  0.004614  0.295245  1
  Li  Li524  1  0.504614  0.783641  0.704755  1
  Li  Li525  1  0.716359  0.995386  0.704755  1
  Li  Li526  1  0.495386  0.783641  0.295245  1
  Li  Li527  1  0.504614  0.216359  0.295245  1
  Li  Li528  1  0.704755  0.283641  0.004614  1
  Li  Li529  1  0.783641  0.795245  0.995386  1
  Li  Li530  1  0.295245  0.716359  0.004614  1
  Li  Li531  1  0.216359  0.204755  0.995386  1
  Li  Li532  1  0.704755  0.716359  0.995386  1
  Li  Li533  1  0.216359  0.795245  0.004614  1
  Li  Li534  1  0.295245  0.283641  0.995386  1
  Li  Li535  1  0.783641  0.204755  0.004614  1
  Li  Li536  1  0.004614  0.204755  0.783641  1
  Li  Li537  1  0.704755  0.495386  0.216359  1
  Li  Li538  1  0.995386  0.795245  0.783641  1
  Li  Li539  1  0.295245  0.504614  0.216359  1
  Li  Li540  1  0.004614  0.795245  0.216359  1
  Li  Li541  1  0.295245  0.495386  0.783641  1
  Li  Li542  1  0.995386  0.204755  0.216359  1
  Li  Li543  1  0.704755  0.504614  0.783641  1
  Li  Li544  1  0.783641  0.504614  0.704755  1
  Li  Li545  1  0.783641  0.495386  0.295245  1
  Li  Li546  1  0.995386  0.716359  0.704755  1
  Li  Li547  1  0.216359  0.504614  0.295245  1
  Li  Li548  1  0.004614  0.283641  0.704755  1
  Li  Li549  1  0.216359  0.495386  0.704755  1
  Li  Li550  1  0.995386  0.283641  0.295245  1
  Li  Li551  1  0.004614  0.716359  0.295245  1
  Li  Li552  1  0.704755  0.783641  0.504614  1
  Li  Li553  1  0.783641  0.295245  0.495386  1
  Li  Li554  1  0.295245  0.216359  0.504614  1
  Li  Li555  1  0.216359  0.704755  0.495386  1
  Li  Li556  1  0.704755  0.216359  0.495386  1
  Li  Li557  1  0.216359  0.295245  0.504614  1
  Li  Li558  1  0.295245  0.783641  0.495386  1
  Li  Li559  1  0.783641  0.704755  0.504614  1
  Li  Li560  1  0.004614  0.704755  0.283641  1
  Li  Li561  1  0.704755  0.995386  0.716359  1
  Li  Li562  1  0.995386  0.295245  0.283641  1
  Li  Li563  1  0.295245  0.004614  0.716359  1
  Li  Li564  1  0.004614  0.295245  0.716359  1
  Li  Li565  1  0.295245  0.995386  0.283641  1
  Li  Li566  1  0.995386  0.704755  0.716359  1
  Li  Li567  1  0.704755  0.004614  0.283641  1
  Li  Li568  1  0.783641  0.004614  0.204755  1
  Li  Li569  1  0.783641  0.995386  0.795245  1
  Li  Li570  1  0.995386  0.216359  0.204755  1
  Li  Li571  1  0.216359  0.004614  0.795245  1
  Li  Li572  1  0.004614  0.783641  0.204755  1
  Li  Li573  1  0.216359  0.995386  0.204755  1
  Li  Li574  1  0.995386  0.783641  0.795245  1
  Li  Li575  1  0.004614  0.216359  0.795245  1
  Li  Li576  1  0.198793  0.294206  0.532510  1
  Li  Li577  1  0.294206  0.801207  0.467490  1
  Li  Li578  1  0.801207  0.705794  0.532510  1
  Li  Li579  1  0.705794  0.198793  0.467490  1
  Li  Li580  1  0.198793  0.705794  0.467490  1
  Li  Li581  1  0.705794  0.801207  0.532510  1
  Li  Li582  1  0.801207  0.294206  0.467490  1
  Li  Li583  1  0.294206  0.198793  0.532510  1
  Li  Li584  1  0.532510  0.198793  0.294206  1
  Li  Li585  1  0.198793  0.467490  0.705794  1
  Li  Li586  1  0.467490  0.801207  0.294206  1
  Li  Li587  1  0.801207  0.532510  0.705794  1
  Li  Li588  1  0.532510  0.801207  0.705794  1
  Li  Li589  1  0.801207  0.467490  0.294206  1
  Li  Li590  1  0.467490  0.198793  0.705794  1
  Li  Li591  1  0.198793  0.532510  0.294206  1
  Li  Li592  1  0.294206  0.532510  0.198793  1
  Li  Li593  1  0.294206  0.467490  0.801207  1
  Li  Li594  1  0.467490  0.705794  0.198793  1
  Li  Li595  1  0.705794  0.532510  0.801207  1
  Li  Li596  1  0.532510  0.294206  0.198793  1
  Li  Li597  1  0.705794  0.467490  0.198793  1
  Li  Li598  1  0.467490  0.294206  0.801207  1
  Li  Li599  1  0.532510  0.705794  0.801207  1
  Li  Li600  1  0.198793  0.794206  0.032510  1
  Li  Li601  1  0.294206  0.301207  0.967490  1
  Li  Li602  1  0.801207  0.205794  0.032510  1
  Li  Li603  1  0.705794  0.698793  0.967490  1
  Li  Li604  1  0.198793  0.205794  0.967490  1
  Li  Li605  1  0.705794  0.301207  0.032510  1
  Li  Li606  1  0.801207  0.794206  0.967490  1
  Li  Li607  1  0.294206  0.698793  0.032510  1
  Li  Li608  1  0.532510  0.698793  0.794206  1
  Li  Li609  1  0.198793  0.967490  0.205794  1
  Li  Li610  1  0.467490  0.301207  0.794206  1
  Li  Li611  1  0.801207  0.032510  0.205794  1
  Li  Li612  1  0.532510  0.301207  0.205794  1
  Li  Li613  1  0.801207  0.967490  0.794206  1
  Li  Li614  1  0.467490  0.698793  0.205794  1
  Li  Li615  1  0.198793  0.032510  0.794206  1
  Li  Li616  1  0.294206  0.032510  0.698793  1
  Li  Li617  1  0.294206  0.967490  0.301207  1
  Li  Li618  1  0.467490  0.205794  0.698793  1
  Li  Li619  1  0.705794  0.032510  0.301207  1
  Li  Li620  1  0.532510  0.794206  0.698793  1
  Li  Li621  1  0.705794  0.967490  0.698793  1
  Li  Li622  1  0.467490  0.794206  0.301207  1
  Li  Li623  1  0.532510  0.205794  0.301207  1
  Li  Li624  1  0.698793  0.294206  0.032510  1
  Li  Li625  1  0.794206  0.801207  0.967490  1
  Li  Li626  1  0.301207  0.705794  0.032510  1
  Li  Li627  1  0.205794  0.198793  0.967490  1
  Li  Li628  1  0.698793  0.705794  0.967490  1
  Li  Li629  1  0.205794  0.801207  0.032510  1
  Li  Li630  1  0.301207  0.294206  0.967490  1
  Li  Li631  1  0.794206  0.198793  0.032510  1
  Li  Li632  1  0.032510  0.198793  0.794206  1
  Li  Li633  1  0.698793  0.467490  0.205794  1
  Li  Li634  1  0.967490  0.801207  0.794206  1
  Li  Li635  1  0.301207  0.532510  0.205794  1
  Li  Li636  1  0.032510  0.801207  0.205794  1
  Li  Li637  1  0.301207  0.467490  0.794206  1
  Li  Li638  1  0.967490  0.198793  0.205794  1
  Li  Li639  1  0.698793  0.532510  0.794206  1
  Li  Li640  1  0.794206  0.532510  0.698793  1
  Li  Li641  1  0.794206  0.467490  0.301207  1
  Li  Li642  1  0.967490  0.705794  0.698793  1
  Li  Li643  1  0.205794  0.532510  0.301207  1
  Li  Li644  1  0.032510  0.294206  0.698793  1
  Li  Li645  1  0.205794  0.467490  0.698793  1
  Li  Li646  1  0.967490  0.294206  0.301207  1
  Li  Li647  1  0.032510  0.705794  0.301207  1
  Li  Li648  1  0.698793  0.794206  0.532510  1
  Li  Li649  1  0.794206  0.301207  0.467490  1
  Li  Li650  1  0.301207  0.205794  0.532510  1
  Li  Li651  1  0.205794  0.698793  0.467490  1
  Li  Li652  1  0.698793  0.205794  0.467490  1
  Li  Li653  1  0.205794  0.301207  0.532510  1
  Li  Li654  1  0.301207  0.794206  0.467490  1
  Li  Li655  1  0.794206  0.698793  0.532510  1
  Li  Li656  1  0.032510  0.698793  0.294206  1
  Li  Li657  1  0.698793  0.967490  0.705794  1
  Li  Li658  1  0.967490  0.301207  0.294206  1
  Li  Li659  1  0.301207  0.032510  0.705794  1
  Li  Li660  1  0.032510  0.301207  0.705794  1
  Li  Li661  1  0.301207  0.967490  0.294206  1
  Li  Li662  1  0.967490  0.698793  0.705794  1
  Li  Li663  1  0.698793  0.032510  0.294206  1
  Li  Li664  1  0.794206  0.032510  0.198793  1
  Li  Li665  1  0.794206  0.967490  0.801207  1
  Li  Li666  1  0.967490  0.205794  0.198793  1
  Li  Li667  1  0.205794  0.032510  0.801207  1
  Li  Li668  1  0.032510  0.794206  0.198793  1
  Li  Li669  1  0.205794  0.967490  0.198793  1
  Li  Li670  1  0.967490  0.794206  0.801207  1
  Li  Li671  1  0.032510  0.205794  0.801207  1
  Li  Li672  1  0.312697  0.022868  0.705681  1
  Li  Li673  1  0.022868  0.687303  0.294319  1
  Li  Li674  1  0.687303  0.977132  0.705681  1
  Li  Li675  1  0.977132  0.312697  0.294319  1
  Li  Li676  1  0.312697  0.977132  0.294319  1
  Li  Li677  1  0.977132  0.687303  0.705681  1
  Li  Li678  1  0.687303  0.022868  0.294319  1
  Li  Li679  1  0.022868  0.312697  0.705681  1
  Li  Li680  1  0.705681  0.312697  0.022868  1
  Li  Li681  1  0.312697  0.294319  0.977132  1
  Li  Li682  1  0.294319  0.687303  0.022868  1
  Li  Li683  1  0.687303  0.705681  0.977132  1
  Li  Li684  1  0.705681  0.687303  0.977132  1
  Li  Li685  1  0.687303  0.294319  0.022868  1
  Li  Li686  1  0.294319  0.312697  0.977132  1
  Li  Li687  1  0.312697  0.705681  0.022868  1
  Li  Li688  1  0.022868  0.705681  0.312697  1
  Li  Li689  1  0.022868  0.294319  0.687303  1
  Li  Li690  1  0.294319  0.977132  0.312697  1
  Li  Li691  1  0.977132  0.705681  0.687303  1
  Li  Li692  1  0.705681  0.022868  0.312697  1
  Li  Li693  1  0.977132  0.294319  0.312697  1
  Li  Li694  1  0.294319  0.022868  0.687303  1
  Li  Li695  1  0.705681  0.977132  0.687303  1
  Li  Li696  1  0.312697  0.522868  0.205681  1
  Li  Li697  1  0.022868  0.187303  0.794319  1
  Li  Li698  1  0.687303  0.477132  0.205681  1
  Li  Li699  1  0.977132  0.812697  0.794319  1
  Li  Li700  1  0.312697  0.477132  0.794319  1
  Li  Li701  1  0.977132  0.187303  0.205681  1
  Li  Li702  1  0.687303  0.522868  0.794319  1
  Li  Li703  1  0.022868  0.812697  0.205681  1
  Li  Li704  1  0.705681  0.812697  0.522868  1
  Li  Li705  1  0.312697  0.794319  0.477132  1
  Li  Li706  1  0.294319  0.187303  0.522868  1
  Li  Li707  1  0.687303  0.205681  0.477132  1
  Li  Li708  1  0.705681  0.187303  0.477132  1
  Li  Li709  1  0.687303  0.794319  0.522868  1
  Li  Li710  1  0.294319  0.812697  0.477132  1
  Li  Li711  1  0.312697  0.205681  0.522868  1
  Li  Li712  1  0.022868  0.205681  0.812697  1
  Li  Li713  1  0.022868  0.794319  0.187303  1
  Li  Li714  1  0.294319  0.477132  0.812697  1
  Li  Li715  1  0.977132  0.205681  0.187303  1
  Li  Li716  1  0.705681  0.522868  0.812697  1
  Li  Li717  1  0.977132  0.794319  0.812697  1
  Li  Li718  1  0.294319  0.522868  0.187303  1
  Li  Li719  1  0.705681  0.477132  0.187303  1
  Li  Li720  1  0.812697  0.022868  0.205681  1
  Li  Li721  1  0.522868  0.687303  0.794319  1
  Li  Li722  1  0.187303  0.977132  0.205681  1
  Li  Li723  1  0.477132  0.312697  0.794319  1
  Li  Li724  1  0.812697  0.977132  0.794319  1
  Li  Li725  1  0.477132  0.687303  0.205681  1
  Li  Li726  1  0.187303  0.022868  0.794319  1
  Li  Li727  1  0.522868  0.312697  0.205681  1
  Li  Li728  1  0.205681  0.312697  0.522868  1
  Li  Li729  1  0.812697  0.294319  0.477132  1
  Li  Li730  1  0.794319  0.687303  0.522868  1
  Li  Li731  1  0.187303  0.705681  0.477132  1
  Li  Li732  1  0.205681  0.687303  0.477132  1
  Li  Li733  1  0.187303  0.294319  0.522868  1
  Li  Li734  1  0.794319  0.312697  0.477132  1
  Li  Li735  1  0.812697  0.705681  0.522868  1
  Li  Li736  1  0.522868  0.705681  0.812697  1
  Li  Li737  1  0.522868  0.294319  0.187303  1
  Li  Li738  1  0.794319  0.977132  0.812697  1
  Li  Li739  1  0.477132  0.705681  0.187303  1
  Li  Li740  1  0.205681  0.022868  0.812697  1
  Li  Li741  1  0.477132  0.294319  0.812697  1
  Li  Li742  1  0.794319  0.022868  0.187303  1
  Li  Li743  1  0.205681  0.977132  0.187303  1
  Li  Li744  1  0.812697  0.522868  0.705681  1
  Li  Li745  1  0.522868  0.187303  0.294319  1
  Li  Li746  1  0.187303  0.477132  0.705681  1
  Li  Li747  1  0.477132  0.812697  0.294319  1
  Li  Li748  1  0.812697  0.477132  0.294319  1
  Li  Li749  1  0.477132  0.187303  0.705681  1
  Li  Li750  1  0.187303  0.522868  0.294319  1
  Li  Li751  1  0.522868  0.812697  0.705681  1
  Li  Li752  1  0.205681  0.812697  0.022868  1
  Li  Li753  1  0.812697  0.794319  0.977132  1
  Li  Li754  1  0.794319  0.187303  0.022868  1
  Li  Li755  1  0.187303  0.205681  0.977132  1
  Li  Li756  1  0.205681  0.187303  0.977132  1
  Li  Li757  1  0.187303  0.794319  0.022868  1
  Li  Li758  1  0.794319  0.812697  0.977132  1
  Li  Li759  1  0.812697  0.205681  0.022868  1
  Li  Li760  1  0.522868  0.205681  0.312697  1
  Li  Li761  1  0.522868  0.794319  0.687303  1
  Li  Li762  1  0.794319  0.477132  0.312697  1
  Li  Li763  1  0.477132  0.205681  0.687303  1
  Li  Li764  1  0.205681  0.522868  0.312697  1
  Li  Li765  1  0.477132  0.794319  0.312697  1
  Li  Li766  1  0.794319  0.522868  0.687303  1
  Li  Li767  1  0.205681  0.477132  0.687303  1
  Li  Li768  1  0.335227  0.303770  0.960334  1
  Li  Li769  1  0.303770  0.664773  0.039666  1
  Li  Li770  1  0.664773  0.696230  0.960334  1
  Li  Li771  1  0.696230  0.335227  0.039666  1
  Li  Li772  1  0.335227  0.696230  0.039666  1
  Li  Li773  1  0.696230  0.664773  0.960334  1
  Li  Li774  1  0.664773  0.303770  0.039666  1
  Li  Li775  1  0.303770  0.335227  0.960334  1
  Li  Li776  1  0.960334  0.335227  0.303770  1
  Li  Li777  1  0.335227  0.039666  0.696230  1
  Li  Li778  1  0.039666  0.664773  0.303770  1
  Li  Li779  1  0.664773  0.960334  0.696230  1
  Li  Li780  1  0.960334  0.664773  0.696230  1
  Li  Li781  1  0.664773  0.039666  0.303770  1
  Li  Li782  1  0.039666  0.335227  0.696230  1
  Li  Li783  1  0.335227  0.960334  0.303770  1
  Li  Li784  1  0.303770  0.960334  0.335227  1
  Li  Li785  1  0.303770  0.039666  0.664773  1
  Li  Li786  1  0.039666  0.696230  0.335227  1
  Li  Li787  1  0.696230  0.960334  0.664773  1
  Li  Li788  1  0.960334  0.303770  0.335227  1
  Li  Li789  1  0.696230  0.039666  0.335227  1
  Li  Li790  1  0.039666  0.303770  0.664773  1
  Li  Li791  1  0.960334  0.696230  0.664773  1
  Li  Li792  1  0.335227  0.803770  0.460334  1
  Li  Li793  1  0.303770  0.164773  0.539666  1
  Li  Li794  1  0.664773  0.196230  0.460334  1
  Li  Li795  1  0.696230  0.835227  0.539666  1
  Li  Li796  1  0.335227  0.196230  0.539666  1
  Li  Li797  1  0.696230  0.164773  0.460334  1
  Li  Li798  1  0.664773  0.803770  0.539666  1
  Li  Li799  1  0.303770  0.835227  0.460334  1
  Li  Li800  1  0.960334  0.835227  0.803770  1
  Li  Li801  1  0.335227  0.539666  0.196230  1
  Li  Li802  1  0.039666  0.164773  0.803770  1
  Li  Li803  1  0.664773  0.460334  0.196230  1
  Li  Li804  1  0.960334  0.164773  0.196230  1
  Li  Li805  1  0.664773  0.539666  0.803770  1
  Li  Li806  1  0.039666  0.835227  0.196230  1
  Li  Li807  1  0.335227  0.460334  0.803770  1
  Li  Li808  1  0.303770  0.460334  0.835227  1
  Li  Li809  1  0.303770  0.539666  0.164773  1
  Li  Li810  1  0.039666  0.196230  0.835227  1
  Li  Li811  1  0.696230  0.460334  0.164773  1
  Li  Li812  1  0.960334  0.803770  0.835227  1
  Li  Li813  1  0.696230  0.539666  0.835227  1
  Li  Li814  1  0.039666  0.803770  0.164773  1
  Li  Li815  1  0.960334  0.196230  0.164773  1
  Li  Li816  1  0.835227  0.303770  0.460334  1
  Li  Li817  1  0.803770  0.664773  0.539666  1
  Li  Li818  1  0.164773  0.696230  0.460334  1
  Li  Li819  1  0.196230  0.335227  0.539666  1
  Li  Li820  1  0.835227  0.696230  0.539666  1
  Li  Li821  1  0.196230  0.664773  0.460334  1
  Li  Li822  1  0.164773  0.303770  0.539666  1
  Li  Li823  1  0.803770  0.335227  0.460334  1
  Li  Li824  1  0.460334  0.335227  0.803770  1
  Li  Li825  1  0.835227  0.039666  0.196230  1
  Li  Li826  1  0.539666  0.664773  0.803770  1
  Li  Li827  1  0.164773  0.960334  0.196230  1
  Li  Li828  1  0.460334  0.664773  0.196230  1
  Li  Li829  1  0.164773  0.039666  0.803770  1
  Li  Li830  1  0.539666  0.335227  0.196230  1
  Li  Li831  1  0.835227  0.960334  0.803770  1
  Li  Li832  1  0.803770  0.960334  0.835227  1
  Li  Li833  1  0.803770  0.039666  0.164773  1
  Li  Li834  1  0.539666  0.696230  0.835227  1
  Li  Li835  1  0.196230  0.960334  0.164773  1
  Li  Li836  1  0.460334  0.303770  0.835227  1
  Li  Li837  1  0.196230  0.039666  0.835227  1
  Li  Li838  1  0.539666  0.303770  0.164773  1
  Li  Li839  1  0.460334  0.696230  0.164773  1
  Li  Li840  1  0.835227  0.803770  0.960334  1
  Li  Li841  1  0.803770  0.164773  0.039666  1
  Li  Li842  1  0.164773  0.196230  0.960334  1
  Li  Li843  1  0.196230  0.835227  0.039666  1
  Li  Li844  1  0.835227  0.196230  0.039666  1
  Li  Li845  1  0.196230  0.164773  0.960334  1
  Li  Li846  1  0.164773  0.803770  0.039666  1
  Li  Li847  1  0.803770  0.835227  0.960334  1
  Li  Li848  1  0.460334  0.835227  0.303770  1
  Li  Li849  1  0.835227  0.539666  0.696230  1
  Li  Li850  1  0.539666  0.164773  0.303770  1
  Li  Li851  1  0.164773  0.460334  0.696230  1
  Li  Li852  1  0.460334  0.164773  0.696230  1
  Li  Li853  1  0.164773  0.539666  0.303770  1
  Li  Li854  1  0.539666  0.835227  0.696230  1
  Li  Li855  1  0.835227  0.460334  0.303770  1
  Li  Li856  1  0.803770  0.460334  0.335227  1
  Li  Li857  1  0.803770  0.539666  0.664773  1
  Li  Li858  1  0.539666  0.196230  0.335227  1
  Li  Li859  1  0.196230  0.460334  0.664773  1
  Li  Li860  1  0.460334  0.803770  0.335227  1
  Li  Li861  1  0.196230  0.539666  0.335227  1
  Li  Li862  1  0.539666  0.803770  0.664773  1
  Li  Li863  1  0.460334  0.196230  0.664773  1
  Li  Li864  1  0.212342  0.210694  0.985419  1
  Li  Li865  1  0.210694  0.787658  0.014581  1
  Li  Li866  1  0.787658  0.789306  0.985419  1
  Li  Li867  1  0.789306  0.212342  0.014581  1
  Li  Li868  1  0.212342  0.789306  0.014581  1
  Li  Li869  1  0.789306  0.787658  0.985419  1
  Li  Li870  1  0.787658  0.210694  0.014581  1
  Li  Li871  1  0.210694  0.212342  0.985419  1
  Li  Li872  1  0.985419  0.212342  0.210694  1
  Li  Li873  1  0.212342  0.014581  0.789306  1
  Li  Li874  1  0.014581  0.787658  0.210694  1
  Li  Li875  1  0.787658  0.985419  0.789306  1
  Li  Li876  1  0.985419  0.787658  0.789306  1
  Li  Li877  1  0.787658  0.014581  0.210694  1
  Li  Li878  1  0.014581  0.212342  0.789306  1
  Li  Li879  1  0.212342  0.985419  0.210694  1
  Li  Li880  1  0.210694  0.985419  0.212342  1
  Li  Li881  1  0.210694  0.014581  0.787658  1
  Li  Li882  1  0.014581  0.789306  0.212342  1
  Li  Li883  1  0.789306  0.985419  0.787658  1
  Li  Li884  1  0.985419  0.210694  0.212342  1
  Li  Li885  1  0.789306  0.014581  0.212342  1
  Li  Li886  1  0.014581  0.210694  0.787658  1
  Li  Li887  1  0.985419  0.789306  0.787658  1
  Li  Li888  1  0.212342  0.710694  0.485419  1
  Li  Li889  1  0.210694  0.287658  0.514581  1
  Li  Li890  1  0.787658  0.289306  0.485419  1
  Li  Li891  1  0.789306  0.712342  0.514581  1
  Li  Li892  1  0.212342  0.289306  0.514581  1
  Li  Li893  1  0.789306  0.287658  0.485419  1
  Li  Li894  1  0.787658  0.710694  0.514581  1
  Li  Li895  1  0.210694  0.712342  0.485419  1
  Li  Li896  1  0.985419  0.712342  0.710694  1
  Li  Li897  1  0.212342  0.514581  0.289306  1
  Li  Li898  1  0.014581  0.287658  0.710694  1
  Li  Li899  1  0.787658  0.485419  0.289306  1
  Li  Li900  1  0.985419  0.287658  0.289306  1
  Li  Li901  1  0.787658  0.514581  0.710694  1
  Li  Li902  1  0.014581  0.712342  0.289306  1
  Li  Li903  1  0.212342  0.485419  0.710694  1
  Li  Li904  1  0.210694  0.485419  0.712342  1
  Li  Li905  1  0.210694  0.514581  0.287658  1
  Li  Li906  1  0.014581  0.289306  0.712342  1
  Li  Li907  1  0.789306  0.485419  0.287658  1
  Li  Li908  1  0.985419  0.710694  0.712342  1
  Li  Li909  1  0.789306  0.514581  0.712342  1
  Li  Li910  1  0.014581  0.710694  0.287658  1
  Li  Li911  1  0.985419  0.289306  0.287658  1
  Li  Li912  1  0.712342  0.210694  0.485419  1
  Li  Li913  1  0.710694  0.787658  0.514581  1
  Li  Li914  1  0.287658  0.789306  0.485419  1
  Li  Li915  1  0.289306  0.212342  0.514581  1
  Li  Li916  1  0.712342  0.789306  0.514581  1
  Li  Li917  1  0.289306  0.787658  0.485419  1
  Li  Li918  1  0.287658  0.210694  0.514581  1
  Li  Li919  1  0.710694  0.212342  0.485419  1
  Li  Li920  1  0.485419  0.212342  0.710694  1
  Li  Li921  1  0.712342  0.014581  0.289306  1
  Li  Li922  1  0.514581  0.787658  0.710694  1
  Li  Li923  1  0.287658  0.985419  0.289306  1
  Li  Li924  1  0.485419  0.787658  0.289306  1
  Li  Li925  1  0.287658  0.014581  0.710694  1
  Li  Li926  1  0.514581  0.212342  0.289306  1
  Li  Li927  1  0.712342  0.985419  0.710694  1
  Li  Li928  1  0.710694  0.985419  0.712342  1
  Li  Li929  1  0.710694  0.014581  0.287658  1
  Li  Li930  1  0.514581  0.789306  0.712342  1
  Li  Li931  1  0.289306  0.985419  0.287658  1
  Li  Li932  1  0.485419  0.210694  0.712342  1
  Li  Li933  1  0.289306  0.014581  0.712342  1
  Li  Li934  1  0.514581  0.210694  0.287658  1
  Li  Li935  1  0.485419  0.789306  0.287658  1
  Li  Li936  1  0.712342  0.710694  0.985419  1
  Li  Li937  1  0.710694  0.287658  0.014581  1
  Li  Li938  1  0.287658  0.289306  0.985419  1
  Li  Li939  1  0.289306  0.712342  0.014581  1
  Li  Li940  1  0.712342  0.289306  0.014581  1
  Li  Li941  1  0.289306  0.287658  0.985419  1
  Li  Li942  1  0.287658  0.710694  0.014581  1
  Li  Li943  1  0.710694  0.712342  0.985419  1
  Li  Li944  1  0.485419  0.712342  0.210694  1
  Li  Li945  1  0.712342  0.514581  0.789306  1
  Li  Li946  1  0.514581  0.287658  0.210694  1
  Li  Li947  1  0.287658  0.485419  0.789306  1
  Li  Li948  1  0.485419  0.287658  0.789306  1
  Li  Li949  1  0.287658  0.514581  0.210694  1
  Li  Li950  1  0.514581  0.712342  0.789306  1
  Li  Li951  1  0.712342  0.485419  0.210694  1
  Li  Li952  1  0.710694  0.485419  0.212342  1
  Li  Li953  1  0.710694  0.514581  0.787658  1
  Li  Li954  1  0.514581  0.289306  0.212342  1
  Li  Li955  1  0.289306  0.485419  0.787658  1
  Li  Li956  1  0.485419  0.710694  0.212342  1
  Li  Li957  1  0.289306  0.514581  0.212342  1
  Li  Li958  1  0.514581  0.710694  0.787658  1
  Li  Li959  1  0.485419  0.289306  0.787658  1
  Li  Li960  1  0.193563  0.047768  0.821277  1
  Li  Li961  1  0.047768  0.806437  0.178723  1
  Li  Li962  1  0.806437  0.952232  0.821277  1
  Li  Li963  1  0.952232  0.193563  0.178723  1
  Li  Li964  1  0.193563  0.952232  0.178723  1
  Li  Li965  1  0.952232  0.806437  0.821277  1
  Li  Li966  1  0.806437  0.047768  0.178723  1
  Li  Li967  1  0.047768  0.193563  0.821277  1
  Li  Li968  1  0.821277  0.193563  0.047768  1
  Li  Li969  1  0.193563  0.178723  0.952232  1
  Li  Li970  1  0.178723  0.806437  0.047768  1
  Li  Li971  1  0.806437  0.821277  0.952232  1
  Li  Li972  1  0.821277  0.806437  0.952232  1
  Li  Li973  1  0.806437  0.178723  0.047768  1
  Li  Li974  1  0.178723  0.193563  0.952232  1
  Li  Li975  1  0.193563  0.821277  0.047768  1
  Li  Li976  1  0.047768  0.821277  0.193563  1
  Li  Li977  1  0.047768  0.178723  0.806437  1
  Li  Li978  1  0.178723  0.952232  0.193563  1
  Li  Li979  1  0.952232  0.821277  0.806437  1
  Li  Li980  1  0.821277  0.047768  0.193563  1
  Li  Li981  1  0.952232  0.178723  0.193563  1
  Li  Li982  1  0.178723  0.047768  0.806437  1
  Li  Li983  1  0.821277  0.952232  0.806437  1
  Li  Li984  1  0.193563  0.547768  0.321277  1
  Li  Li985  1  0.047768  0.306437  0.678723  1
  Li  Li986  1  0.806437  0.452232  0.321277  1
  Li  Li987  1  0.952232  0.693563  0.678723  1
  Li  Li988  1  0.193563  0.452232  0.678723  1
  Li  Li989  1  0.952232  0.306437  0.321277  1
  Li  Li990  1  0.806437  0.547768  0.678723  1
  Li  Li991  1  0.047768  0.693563  0.321277  1
  Li  Li992  1  0.821277  0.693563  0.547768  1
  Li  Li993  1  0.193563  0.678723  0.452232  1
  Li  Li994  1  0.178723  0.306437  0.547768  1
  Li  Li995  1  0.806437  0.321277  0.452232  1
  Li  Li996  1  0.821277  0.306437  0.452232  1
  Li  Li997  1  0.806437  0.678723  0.547768  1
  Li  Li998  1  0.178723  0.693563  0.452232  1
  Li  Li999  1  0.193563  0.321277  0.547768  1
  Li  Li1000  1  0.047768  0.321277  0.693563  1
  Li  Li1001  1  0.047768  0.678723  0.306437  1
  Li  Li1002  1  0.178723  0.452232  0.693563  1
  Li  Li1003  1  0.952232  0.321277  0.306437  1
  Li  Li1004  1  0.821277  0.547768  0.693563  1
  Li  Li1005  1  0.952232  0.678723  0.693563  1
  Li  Li1006  1  0.178723  0.547768  0.306437  1
  Li  Li1007  1  0.821277  0.452232  0.306437  1
  Li  Li1008  1  0.693563  0.047768  0.321277  1
  Li  Li1009  1  0.547768  0.806437  0.678723  1
  Li  Li1010  1  0.306437  0.952232  0.321277  1
  Li  Li1011  1  0.452232  0.193563  0.678723  1
  Li  Li1012  1  0.693563  0.952232  0.678723  1
  Li  Li1013  1  0.452232  0.806437  0.321277  1
  Li  Li1014  1  0.306437  0.047768  0.678723  1
  Li  Li1015  1  0.547768  0.193563  0.321277  1
  Li  Li1016  1  0.321277  0.193563  0.547768  1
  Li  Li1017  1  0.693563  0.178723  0.452232  1
  Li  Li1018  1  0.678723  0.806437  0.547768  1
  Li  Li1019  1  0.306437  0.821277  0.452232  1
  Li  Li1020  1  0.321277  0.806437  0.452232  1
  Li  Li1021  1  0.306437  0.178723  0.547768  1
  Li  Li1022  1  0.678723  0.193563  0.452232  1
  Li  Li1023  1  0.693563  0.821277  0.547768  1
  Li  Li1024  1  0.547768  0.821277  0.693563  1
  Li  Li1025  1  0.547768  0.178723  0.306437  1
  Li  Li1026  1  0.678723  0.952232  0.693563  1
  Li  Li1027  1  0.452232  0.821277  0.306437  1
  Li  Li1028  1  0.321277  0.047768  0.693563  1
  Li  Li1029  1  0.452232  0.178723  0.693563  1
  Li  Li1030  1  0.678723  0.047768  0.306437  1
  Li  Li1031  1  0.321277  0.952232  0.306437  1
  Li  Li1032  1  0.693563  0.547768  0.821277  1
  Li  Li1033  1  0.547768  0.306437  0.178723  1
  Li  Li1034  1  0.306437  0.452232  0.821277  1
  Li  Li1035  1  0.452232  0.693563  0.178723  1
  Li  Li1036  1  0.693563  0.452232  0.178723  1
  Li  Li1037  1  0.452232  0.306437  0.821277  1
  Li  Li1038  1  0.306437  0.547768  0.178723  1
  Li  Li1039  1  0.547768  0.693563  0.821277  1
  Li  Li1040  1  0.321277  0.693563  0.047768  1
  Li  Li1041  1  0.693563  0.678723  0.952232  1
  Li  Li1042  1  0.678723  0.306437  0.047768  1
  Li  Li1043  1  0.306437  0.321277  0.952232  1
  Li  Li1044  1  0.321277  0.306437  0.952232  1
  Li  Li1045  1  0.306437  0.678723  0.047768  1
  Li  Li1046  1  0.678723  0.693563  0.952232  1
  Li  Li1047  1  0.693563  0.321277  0.047768  1
  Li  Li1048  1  0.547768  0.321277  0.193563  1
  Li  Li1049  1  0.547768  0.678723  0.806437  1
  Li  Li1050  1  0.678723  0.452232  0.193563  1
  Li  Li1051  1  0.452232  0.321277  0.806437  1
  Li  Li1052  1  0.321277  0.547768  0.193563  1
  Li  Li1053  1  0.452232  0.678723  0.193563  1
  Li  Li1054  1  0.678723  0.547768  0.806437  1
  Li  Li1055  1  0.321277  0.452232  0.806437  1
  Li  Li1056  1  0.476759  0.195227  0.683958  1
  Li  Li1057  1  0.195227  0.523241  0.316042  1
  Li  Li1058  1  0.523241  0.804773  0.683958  1
  Li  Li1059  1  0.804773  0.476759  0.316042  1
  Li  Li1060  1  0.476759  0.804773  0.316042  1
  Li  Li1061  1  0.804773  0.523241  0.683958  1
  Li  Li1062  1  0.523241  0.195227  0.316042  1
  Li  Li1063  1  0.195227  0.476759  0.683958  1
  Li  Li1064  1  0.683958  0.476759  0.195227  1
  Li  Li1065  1  0.476759  0.316042  0.804773  1
  Li  Li1066  1  0.316042  0.523241  0.195227  1
  Li  Li1067  1  0.523241  0.683958  0.804773  1
  Li  Li1068  1  0.683958  0.523241  0.804773  1
  Li  Li1069  1  0.523241  0.316042  0.195227  1
  Li  Li1070  1  0.316042  0.476759  0.804773  1
  Li  Li1071  1  0.476759  0.683958  0.195227  1
  Li  Li1072  1  0.195227  0.683958  0.476759  1
  Li  Li1073  1  0.195227  0.316042  0.523241  1
  Li  Li1074  1  0.316042  0.804773  0.476759  1
  Li  Li1075  1  0.804773  0.683958  0.523241  1
  Li  Li1076  1  0.683958  0.195227  0.476759  1
  Li  Li1077  1  0.804773  0.316042  0.476759  1
  Li  Li1078  1  0.316042  0.195227  0.523241  1
  Li  Li1079  1  0.683958  0.804773  0.523241  1
  Li  Li1080  1  0.476759  0.695227  0.183958  1
  Li  Li1081  1  0.195227  0.023241  0.816042  1
  Li  Li1082  1  0.523241  0.304773  0.183958  1
  Li  Li1083  1  0.804773  0.976759  0.816042  1
  Li  Li1084  1  0.476759  0.304773  0.816042  1
  Li  Li1085  1  0.804773  0.023241  0.183958  1
  Li  Li1086  1  0.523241  0.695227  0.816042  1
  Li  Li1087  1  0.195227  0.976759  0.183958  1
  Li  Li1088  1  0.683958  0.976759  0.695227  1
  Li  Li1089  1  0.476759  0.816042  0.304773  1
  Li  Li1090  1  0.316042  0.023241  0.695227  1
  Li  Li1091  1  0.523241  0.183958  0.304773  1
  Li  Li1092  1  0.683958  0.023241  0.304773  1
  Li  Li1093  1  0.523241  0.816042  0.695227  1
  Li  Li1094  1  0.316042  0.976759  0.304773  1
  Li  Li1095  1  0.476759  0.183958  0.695227  1
  Li  Li1096  1  0.195227  0.183958  0.976759  1
  Li  Li1097  1  0.195227  0.816042  0.023241  1
  Li  Li1098  1  0.316042  0.304773  0.976759  1
  Li  Li1099  1  0.804773  0.183958  0.023241  1
  Li  Li1100  1  0.683958  0.695227  0.976759  1
  Li  Li1101  1  0.804773  0.816042  0.976759  1
  Li  Li1102  1  0.316042  0.695227  0.023241  1
  Li  Li1103  1  0.683958  0.304773  0.023241  1
  Li  Li1104  1  0.976759  0.195227  0.183958  1
  Li  Li1105  1  0.695227  0.523241  0.816042  1
  Li  Li1106  1  0.023241  0.804773  0.183958  1
  Li  Li1107  1  0.304773  0.476759  0.816042  1
  Li  Li1108  1  0.976759  0.804773  0.816042  1
  Li  Li1109  1  0.304773  0.523241  0.183958  1
  Li  Li1110  1  0.023241  0.195227  0.816042  1
  Li  Li1111  1  0.695227  0.476759  0.183958  1
  Li  Li1112  1  0.183958  0.476759  0.695227  1
  Li  Li1113  1  0.976759  0.316042  0.304773  1
  Li  Li1114  1  0.816042  0.523241  0.695227  1
  Li  Li1115  1  0.023241  0.683958  0.304773  1
  Li  Li1116  1  0.183958  0.523241  0.304773  1
  Li  Li1117  1  0.023241  0.316042  0.695227  1
  Li  Li1118  1  0.816042  0.476759  0.304773  1
  Li  Li1119  1  0.976759  0.683958  0.695227  1
  Li  Li1120  1  0.695227  0.683958  0.976759  1
  Li  Li1121  1  0.695227  0.316042  0.023241  1
  Li  Li1122  1  0.816042  0.804773  0.976759  1
  Li  Li1123  1  0.304773  0.683958  0.023241  1
  Li  Li1124  1  0.183958  0.195227  0.976759  1
  Li  Li1125  1  0.304773  0.316042  0.976759  1
  Li  Li1126  1  0.816042  0.195227  0.023241  1
  Li  Li1127  1  0.183958  0.804773  0.023241  1
  Li  Li1128  1  0.976759  0.695227  0.683958  1
  Li  Li1129  1  0.695227  0.023241  0.316042  1
  Li  Li1130  1  0.023241  0.304773  0.683958  1
  Li  Li1131  1  0.304773  0.976759  0.316042  1
  Li  Li1132  1  0.976759  0.304773  0.316042  1
  Li  Li1133  1  0.304773  0.023241  0.683958  1
  Li  Li1134  1  0.023241  0.695227  0.316042  1
  Li  Li1135  1  0.695227  0.976759  0.683958  1
  Li  Li1136  1  0.183958  0.976759  0.195227  1
  Li  Li1137  1  0.976759  0.816042  0.804773  1
  Li  Li1138  1  0.816042  0.023241  0.195227  1
  Li  Li1139  1  0.023241  0.183958  0.804773  1
  Li  Li1140  1  0.183958  0.023241  0.804773  1
  Li  Li1141  1  0.023241  0.816042  0.195227  1
  Li  Li1142  1  0.816042  0.976759  0.804773  1
  Li  Li1143  1  0.976759  0.183958  0.195227  1
  Li  Li1144  1  0.695227  0.183958  0.476759  1
  Li  Li1145  1  0.695227  0.816042  0.523241  1
  Li  Li1146  1  0.816042  0.304773  0.476759  1
  Li  Li1147  1  0.304773  0.183958  0.523241  1
  Li  Li1148  1  0.183958  0.695227  0.476759  1
  Li  Li1149  1  0.304773  0.816042  0.476759  1
  Li  Li1150  1  0.816042  0.695227  0.523241  1
  Li  Li1151  1  0.183958  0.304773  0.523241  1
  Li  Li1152  1  0.031886  0.213366  0.822032  1
  Li  Li1153  1  0.213366  0.968114  0.177968  1
  Li  Li1154  1  0.968114  0.786634  0.822032  1
  Li  Li1155  1  0.786634  0.031886  0.177968  1
  Li  Li1156  1  0.031886  0.786634  0.177968  1
  Li  Li1157  1  0.786634  0.968114  0.822032  1
  Li  Li1158  1  0.968114  0.213366  0.177968  1
  Li  Li1159  1  0.213366  0.031886  0.822032  1
  Li  Li1160  1  0.822032  0.031886  0.213366  1
  Li  Li1161  1  0.031886  0.177968  0.786634  1
  Li  Li1162  1  0.177968  0.968114  0.213366  1
  Li  Li1163  1  0.968114  0.822032  0.786634  1
  Li  Li1164  1  0.822032  0.968114  0.786634  1
  Li  Li1165  1  0.968114  0.177968  0.213366  1
  Li  Li1166  1  0.177968  0.031886  0.786634  1
  Li  Li1167  1  0.031886  0.822032  0.213366  1
  Li  Li1168  1  0.213366  0.822032  0.031886  1
  Li  Li1169  1  0.213366  0.177968  0.968114  1
  Li  Li1170  1  0.177968  0.786634  0.031886  1
  Li  Li1171  1  0.786634  0.822032  0.968114  1
  Li  Li1172  1  0.822032  0.213366  0.031886  1
  Li  Li1173  1  0.786634  0.177968  0.031886  1
  Li  Li1174  1  0.177968  0.213366  0.968114  1
  Li  Li1175  1  0.822032  0.786634  0.968114  1
  Li  Li1176  1  0.031886  0.713366  0.322032  1
  Li  Li1177  1  0.213366  0.468114  0.677968  1
  Li  Li1178  1  0.968114  0.286634  0.322032  1
  Li  Li1179  1  0.786634  0.531886  0.677968  1
  Li  Li1180  1  0.031886  0.286634  0.677968  1
  Li  Li1181  1  0.786634  0.468114  0.322032  1
  Li  Li1182  1  0.968114  0.713366  0.677968  1
  Li  Li1183  1  0.213366  0.531886  0.322032  1
  Li  Li1184  1  0.822032  0.531886  0.713366  1
  Li  Li1185  1  0.031886  0.677968  0.286634  1
  Li  Li1186  1  0.177968  0.468114  0.713366  1
  Li  Li1187  1  0.968114  0.322032  0.286634  1
  Li  Li1188  1  0.822032  0.468114  0.286634  1
  Li  Li1189  1  0.968114  0.677968  0.713366  1
  Li  Li1190  1  0.177968  0.531886  0.286634  1
  Li  Li1191  1  0.031886  0.322032  0.713366  1
  Li  Li1192  1  0.213366  0.322032  0.531886  1
  Li  Li1193  1  0.213366  0.677968  0.468114  1
  Li  Li1194  1  0.177968  0.286634  0.531886  1
  Li  Li1195  1  0.786634  0.322032  0.468114  1
  Li  Li1196  1  0.822032  0.713366  0.531886  1
  Li  Li1197  1  0.786634  0.677968  0.531886  1
  Li  Li1198  1  0.177968  0.713366  0.468114  1
  Li  Li1199  1  0.822032  0.286634  0.468114  1
  Li  Li1200  1  0.531886  0.213366  0.322032  1
  Li  Li1201  1  0.713366  0.968114  0.677968  1
  Li  Li1202  1  0.468114  0.786634  0.322032  1
  Li  Li1203  1  0.286634  0.031886  0.677968  1
  Li  Li1204  1  0.531886  0.786634  0.677968  1
  Li  Li1205  1  0.286634  0.968114  0.322032  1
  Li  Li1206  1  0.468114  0.213366  0.677968  1
  Li  Li1207  1  0.713366  0.031886  0.322032  1
  Li  Li1208  1  0.322032  0.031886  0.713366  1
  Li  Li1209  1  0.531886  0.177968  0.286634  1
  Li  Li1210  1  0.677968  0.968114  0.713366  1
  Li  Li1211  1  0.468114  0.822032  0.286634  1
  Li  Li1212  1  0.322032  0.968114  0.286634  1
  Li  Li1213  1  0.468114  0.177968  0.713366  1
  Li  Li1214  1  0.677968  0.031886  0.286634  1
  Li  Li1215  1  0.531886  0.822032  0.713366  1
  Li  Li1216  1  0.713366  0.822032  0.531886  1
  Li  Li1217  1  0.713366  0.177968  0.468114  1
  Li  Li1218  1  0.677968  0.786634  0.531886  1
  Li  Li1219  1  0.286634  0.822032  0.468114  1
  Li  Li1220  1  0.322032  0.213366  0.531886  1
  Li  Li1221  1  0.286634  0.177968  0.531886  1
  Li  Li1222  1  0.677968  0.213366  0.468114  1
  Li  Li1223  1  0.322032  0.786634  0.468114  1
  Li  Li1224  1  0.531886  0.713366  0.822032  1
  Li  Li1225  1  0.713366  0.468114  0.177968  1
  Li  Li1226  1  0.468114  0.286634  0.822032  1
  Li  Li1227  1  0.286634  0.531886  0.177968  1
  Li  Li1228  1  0.531886  0.286634  0.177968  1
  Li  Li1229  1  0.286634  0.468114  0.822032  1
  Li  Li1230  1  0.468114  0.713366  0.177968  1
  Li  Li1231  1  0.713366  0.531886  0.822032  1
  Li  Li1232  1  0.322032  0.531886  0.213366  1
  Li  Li1233  1  0.531886  0.677968  0.786634  1
  Li  Li1234  1  0.677968  0.468114  0.213366  1
  Li  Li1235  1  0.468114  0.322032  0.786634  1
  Li  Li1236  1  0.322032  0.468114  0.786634  1
  Li  Li1237  1  0.468114  0.677968  0.213366  1
  Li  Li1238  1  0.677968  0.531886  0.786634  1
  Li  Li1239  1  0.531886  0.322032  0.213366  1
  Li  Li1240  1  0.713366  0.322032  0.031886  1
  Li  Li1241  1  0.713366  0.677968  0.968114  1
  Li  Li1242  1  0.677968  0.286634  0.031886  1
  Li  Li1243  1  0.286634  0.322032  0.968114  1
  Li  Li1244  1  0.322032  0.713366  0.031886  1
  Li  Li1245  1  0.286634  0.677968  0.031886  1
  Li  Li1246  1  0.677968  0.713366  0.968114  1
  Li  Li1247  1  0.322032  0.286634  0.968114  1
  Li  Li1248  1  0.212224  0.481061  0.697539  1
  Li  Li1249  1  0.481061  0.787776  0.302461  1
  Li  Li1250  1  0.787776  0.518939  0.697539  1
  Li  Li1251  1  0.518939  0.212224  0.302461  1
  Li  Li1252  1  0.212224  0.518939  0.302461  1
  Li  Li1253  1  0.518939  0.787776  0.697539  1
  Li  Li1254  1  0.787776  0.481061  0.302461  1
  Li  Li1255  1  0.481061  0.212224  0.697539  1
  Li  Li1256  1  0.697539  0.212224  0.481061  1
  Li  Li1257  1  0.212224  0.302461  0.518939  1
  Li  Li1258  1  0.302461  0.787776  0.481061  1
  Li  Li1259  1  0.787776  0.697539  0.518939  1
  Li  Li1260  1  0.697539  0.787776  0.518939  1
  Li  Li1261  1  0.787776  0.302461  0.481061  1
  Li  Li1262  1  0.302461  0.212224  0.518939  1
  Li  Li1263  1  0.212224  0.697539  0.481061  1
  Li  Li1264  1  0.481061  0.697539  0.212224  1
  Li  Li1265  1  0.481061  0.302461  0.787776  1
  Li  Li1266  1  0.302461  0.518939  0.212224  1
  Li  Li1267  1  0.518939  0.697539  0.787776  1
  Li  Li1268  1  0.697539  0.481061  0.212224  1
  Li  Li1269  1  0.518939  0.302461  0.212224  1
  Li  Li1270  1  0.302461  0.481061  0.787776  1
  Li  Li1271  1  0.697539  0.518939  0.787776  1
  Li  Li1272  1  0.212224  0.981061  0.197539  1
  Li  Li1273  1  0.481061  0.287776  0.802461  1
  Li  Li1274  1  0.787776  0.018939  0.197539  1
  Li  Li1275  1  0.518939  0.712224  0.802461  1
  Li  Li1276  1  0.212224  0.018939  0.802461  1
  Li  Li1277  1  0.518939  0.287776  0.197539  1
  Li  Li1278  1  0.787776  0.981061  0.802461  1
  Li  Li1279  1  0.481061  0.712224  0.197539  1
  Li  Li1280  1  0.697539  0.712224  0.981061  1
  Li  Li1281  1  0.212224  0.802461  0.018939  1
  Li  Li1282  1  0.302461  0.287776  0.981061  1
  Li  Li1283  1  0.787776  0.197539  0.018939  1
  Li  Li1284  1  0.697539  0.287776  0.018939  1
  Li  Li1285  1  0.787776  0.802461  0.981061  1
  Li  Li1286  1  0.302461  0.712224  0.018939  1
  Li  Li1287  1  0.212224  0.197539  0.981061  1
  Li  Li1288  1  0.481061  0.197539  0.712224  1
  Li  Li1289  1  0.481061  0.802461  0.287776  1
  Li  Li1290  1  0.302461  0.018939  0.712224  1
  Li  Li1291  1  0.518939  0.197539  0.287776  1
  Li  Li1292  1  0.697539  0.981061  0.712224  1
  Li  Li1293  1  0.518939  0.802461  0.712224  1
  Li  Li1294  1  0.302461  0.981061  0.287776  1
  Li  Li1295  1  0.697539  0.018939  0.287776  1
  Li  Li1296  1  0.712224  0.481061  0.197539  1
  Li  Li1297  1  0.981061  0.787776  0.802461  1
  Li  Li1298  1  0.287776  0.518939  0.197539  1
  Li  Li1299  1  0.018939  0.212224  0.802461  1
  Li  Li1300  1  0.712224  0.518939  0.802461  1
  Li  Li1301  1  0.018939  0.787776  0.197539  1
  Li  Li1302  1  0.287776  0.481061  0.802461  1
  Li  Li1303  1  0.981061  0.212224  0.197539  1
  Li  Li1304  1  0.197539  0.212224  0.981061  1
  Li  Li1305  1  0.712224  0.302461  0.018939  1
  Li  Li1306  1  0.802461  0.787776  0.981061  1
  Li  Li1307  1  0.287776  0.697539  0.018939  1
  Li  Li1308  1  0.197539  0.787776  0.018939  1
  Li  Li1309  1  0.287776  0.302461  0.981061  1
  Li  Li1310  1  0.802461  0.212224  0.018939  1
  Li  Li1311  1  0.712224  0.697539  0.981061  1
  Li  Li1312  1  0.981061  0.697539  0.712224  1
  Li  Li1313  1  0.981061  0.302461  0.287776  1
  Li  Li1314  1  0.802461  0.518939  0.712224  1
  Li  Li1315  1  0.018939  0.697539  0.287776  1
  Li  Li1316  1  0.197539  0.481061  0.712224  1
  Li  Li1317  1  0.018939  0.302461  0.712224  1
  Li  Li1318  1  0.802461  0.481061  0.287776  1
  Li  Li1319  1  0.197539  0.518939  0.287776  1
  Li  Li1320  1  0.712224  0.981061  0.697539  1
  Li  Li1321  1  0.981061  0.287776  0.302461  1
  Li  Li1322  1  0.287776  0.018939  0.697539  1
  Li  Li1323  1  0.018939  0.712224  0.302461  1
  Li  Li1324  1  0.712224  0.018939  0.302461  1
  Li  Li1325  1  0.018939  0.287776  0.697539  1
  Li  Li1326  1  0.287776  0.981061  0.302461  1
  Li  Li1327  1  0.981061  0.712224  0.697539  1
  Li  Li1328  1  0.197539  0.712224  0.481061  1
  Li  Li1329  1  0.712224  0.802461  0.518939  1
  Li  Li1330  1  0.802461  0.287776  0.481061  1
  Li  Li1331  1  0.287776  0.197539  0.518939  1
  Li  Li1332  1  0.197539  0.287776  0.518939  1
  Li  Li1333  1  0.287776  0.802461  0.481061  1
  Li  Li1334  1  0.802461  0.712224  0.518939  1
  Li  Li1335  1  0.712224  0.197539  0.481061  1
  Li  Li1336  1  0.981061  0.197539  0.212224  1
  Li  Li1337  1  0.981061  0.802461  0.787776  1
  Li  Li1338  1  0.802461  0.018939  0.212224  1
  Li  Li1339  1  0.018939  0.197539  0.787776  1
  Li  Li1340  1  0.197539  0.981061  0.212224  1
  Li  Li1341  1  0.018939  0.802461  0.212224  1
  Li  Li1342  1  0.802461  0.981061  0.787776  1
  Li  Li1343  1  0.197539  0.018939  0.787776  1
  Li  Li1344  1  0.196792  0.025920  0.835895  1
  Li  Li1345  1  0.025920  0.803208  0.164105  1
  Li  Li1346  1  0.803208  0.974080  0.835895  1
  Li  Li1347  1  0.974080  0.196792  0.164105  1
  Li  Li1348  1  0.196792  0.974080  0.164105  1
  Li  Li1349  1  0.974080  0.803208  0.835895  1
  Li  Li1350  1  0.803208  0.025920  0.164105  1
  Li  Li1351  1  0.025920  0.196792  0.835895  1
  Li  Li1352  1  0.835895  0.196792  0.025920  1
  Li  Li1353  1  0.196792  0.164105  0.974080  1
  Li  Li1354  1  0.164105  0.803208  0.025920  1
  Li  Li1355  1  0.803208  0.835895  0.974080  1
  Li  Li1356  1  0.835895  0.803208  0.974080  1
  Li  Li1357  1  0.803208  0.164105  0.025920  1
  Li  Li1358  1  0.164105  0.196792  0.974080  1
  Li  Li1359  1  0.196792  0.835895  0.025920  1
  Li  Li1360  1  0.025920  0.835895  0.196792  1
  Li  Li1361  1  0.025920  0.164105  0.803208  1
  Li  Li1362  1  0.164105  0.974080  0.196792  1
  Li  Li1363  1  0.974080  0.835895  0.803208  1
  Li  Li1364  1  0.835895  0.025920  0.196792  1
  Li  Li1365  1  0.974080  0.164105  0.196792  1
  Li  Li1366  1  0.164105  0.025920  0.803208  1
  Li  Li1367  1  0.835895  0.974080  0.803208  1
  Li  Li1368  1  0.196792  0.525920  0.335895  1
  Li  Li1369  1  0.025920  0.303208  0.664105  1
  Li  Li1370  1  0.803208  0.474080  0.335895  1
  Li  Li1371  1  0.974080  0.696792  0.664105  1
  Li  Li1372  1  0.196792  0.474080  0.664105  1
  Li  Li1373  1  0.974080  0.303208  0.335895  1
  Li  Li1374  1  0.803208  0.525920  0.664105  1
  Li  Li1375  1  0.025920  0.696792  0.335895  1
  Li  Li1376  1  0.835895  0.696792  0.525920  1
  Li  Li1377  1  0.196792  0.664105  0.474080  1
  Li  Li1378  1  0.164105  0.303208  0.525920  1
  Li  Li1379  1  0.803208  0.335895  0.474080  1
  Li  Li1380  1  0.835895  0.303208  0.474080  1
  Li  Li1381  1  0.803208  0.664105  0.525920  1
  Li  Li1382  1  0.164105  0.696792  0.474080  1
  Li  Li1383  1  0.196792  0.335895  0.525920  1
  Li  Li1384  1  0.025920  0.335895  0.696792  1
  Li  Li1385  1  0.025920  0.664105  0.303208  1
  Li  Li1386  1  0.164105  0.474080  0.696792  1
  Li  Li1387  1  0.974080  0.335895  0.303208  1
  Li  Li1388  1  0.835895  0.525920  0.696792  1
  Li  Li1389  1  0.974080  0.664105  0.696792  1
  Li  Li1390  1  0.164105  0.525920  0.303208  1
  Li  Li1391  1  0.835895  0.474080  0.303208  1
  Li  Li1392  1  0.696792  0.025920  0.335895  1
  Li  Li1393  1  0.525920  0.803208  0.664105  1
  Li  Li1394  1  0.303208  0.974080  0.335895  1
  Li  Li1395  1  0.474080  0.196792  0.664105  1
  Li  Li1396  1  0.696792  0.974080  0.664105  1
  Li  Li1397  1  0.474080  0.803208  0.335895  1
  Li  Li1398  1  0.303208  0.025920  0.664105  1
  Li  Li1399  1  0.525920  0.196792  0.335895  1
  Li  Li1400  1  0.335895  0.196792  0.525920  1
  Li  Li1401  1  0.696792  0.164105  0.474080  1
  Li  Li1402  1  0.664105  0.803208  0.525920  1
  Li  Li1403  1  0.303208  0.835895  0.474080  1
  Li  Li1404  1  0.335895  0.803208  0.474080  1
  Li  Li1405  1  0.303208  0.164105  0.525920  1
  Li  Li1406  1  0.664105  0.196792  0.474080  1
  Li  Li1407  1  0.696792  0.835895  0.525920  1
  Li  Li1408  1  0.525920  0.835895  0.696792  1
  Li  Li1409  1  0.525920  0.164105  0.303208  1
  Li  Li1410  1  0.664105  0.974080  0.696792  1
  Li  Li1411  1  0.474080  0.835895  0.303208  1
  Li  Li1412  1  0.335895  0.025920  0.696792  1
  Li  Li1413  1  0.474080  0.164105  0.696792  1
  Li  Li1414  1  0.664105  0.025920  0.303208  1
  Li  Li1415  1  0.335895  0.974080  0.303208  1
  Li  Li1416  1  0.696792  0.525920  0.835895  1
  Li  Li1417  1  0.525920  0.303208  0.164105  1
  Li  Li1418  1  0.303208  0.474080  0.835895  1
  Li  Li1419  1  0.474080  0.696792  0.164105  1
  Li  Li1420  1  0.696792  0.474080  0.164105  1
  Li  Li1421  1  0.474080  0.303208  0.835895  1
  Li  Li1422  1  0.303208  0.525920  0.164105  1
  Li  Li1423  1  0.525920  0.696792  0.835895  1
  Li  Li1424  1  0.335895  0.696792  0.025920  1
  Li  Li1425  1  0.696792  0.664105  0.974080  1
  Li  Li1426  1  0.664105  0.303208  0.025920  1
  Li  Li1427  1  0.303208  0.335895  0.974080  1
  Li  Li1428  1  0.335895  0.303208  0.974080  1
  Li  Li1429  1  0.303208  0.664105  0.025920  1
  Li  Li1430  1  0.664105  0.696792  0.974080  1
  Li  Li1431  1  0.696792  0.335895  0.025920  1
  Li  Li1432  1  0.525920  0.335895  0.196792  1
  Li  Li1433  1  0.525920  0.664105  0.803208  1
  Li  Li1434  1  0.664105  0.474080  0.196792  1
  Li  Li1435  1  0.474080  0.335895  0.803208  1
  Li  Li1436  1  0.335895  0.525920  0.196792  1
  Li  Li1437  1  0.474080  0.664105  0.196792  1
  Li  Li1438  1  0.664105  0.525920  0.803208  1
  Li  Li1439  1  0.335895  0.474080  0.803208  1
  Li  Li1440  1  0.208819  0.475796  0.739771  1
  Li  Li1441  1  0.475796  0.791181  0.260229  1
  Li  Li1442  1  0.791181  0.524204  0.739771  1
  Li  Li1443  1  0.524204  0.208819  0.260229  1
  Li  Li1444  1  0.208819  0.524204  0.260229  1
  Li  Li1445  1  0.524204  0.791181  0.739771  1
  Li  Li1446  1  0.791181  0.475796  0.260229  1
  Li  Li1447  1  0.475796  0.208819  0.739771  1
  Li  Li1448  1  0.739771  0.208819  0.475796  1
  Li  Li1449  1  0.208819  0.260229  0.524204  1
  Li  Li1450  1  0.260229  0.791181  0.475796  1
  Li  Li1451  1  0.791181  0.739771  0.524204  1
  Li  Li1452  1  0.739771  0.791181  0.524204  1
  Li  Li1453  1  0.791181  0.260229  0.475796  1
  Li  Li1454  1  0.260229  0.208819  0.524204  1
  Li  Li1455  1  0.208819  0.739771  0.475796  1
  Li  Li1456  1  0.475796  0.739771  0.208819  1
  Li  Li1457  1  0.475796  0.260229  0.791181  1
  Li  Li1458  1  0.260229  0.524204  0.208819  1
  Li  Li1459  1  0.524204  0.739771  0.791181  1
  Li  Li1460  1  0.739771  0.475796  0.208819  1
  Li  Li1461  1  0.524204  0.260229  0.208819  1
  Li  Li1462  1  0.260229  0.475796  0.791181  1
  Li  Li1463  1  0.739771  0.524204  0.791181  1
  Li  Li1464  1  0.208819  0.975796  0.239771  1
  Li  Li1465  1  0.475796  0.291181  0.760229  1
  Li  Li1466  1  0.791181  0.024204  0.239771  1
  Li  Li1467  1  0.524204  0.708819  0.760229  1
  Li  Li1468  1  0.208819  0.024204  0.760229  1
  Li  Li1469  1  0.524204  0.291181  0.239771  1
  Li  Li1470  1  0.791181  0.975796  0.760229  1
  Li  Li1471  1  0.475796  0.708819  0.239771  1
  Li  Li1472  1  0.739771  0.708819  0.975796  1
  Li  Li1473  1  0.208819  0.760229  0.024204  1
  Li  Li1474  1  0.260229  0.291181  0.975796  1
  Li  Li1475  1  0.791181  0.239771  0.024204  1
  Li  Li1476  1  0.739771  0.291181  0.024204  1
  Li  Li1477  1  0.791181  0.760229  0.975796  1
  Li  Li1478  1  0.260229  0.708819  0.024204  1
  Li  Li1479  1  0.208819  0.239771  0.975796  1
  Li  Li1480  1  0.475796  0.239771  0.708819  1
  Li  Li1481  1  0.475796  0.760229  0.291181  1
  Li  Li1482  1  0.260229  0.024204  0.708819  1
  Li  Li1483  1  0.524204  0.239771  0.291181  1
  Li  Li1484  1  0.739771  0.975796  0.708819  1
  Li  Li1485  1  0.524204  0.760229  0.708819  1
  Li  Li1486  1  0.260229  0.975796  0.291181  1
  Li  Li1487  1  0.739771  0.024204  0.291181  1
  Li  Li1488  1  0.708819  0.475796  0.239771  1
  Li  Li1489  1  0.975796  0.791181  0.760229  1
  Li  Li1490  1  0.291181  0.524204  0.239771  1
  Li  Li1491  1  0.024204  0.208819  0.760229  1
  Li  Li1492  1  0.708819  0.524204  0.760229  1
  Li  Li1493  1  0.024204  0.791181  0.239771  1
  Li  Li1494  1  0.291181  0.475796  0.760229  1
  Li  Li1495  1  0.975796  0.208819  0.239771  1
  Li  Li1496  1  0.239771  0.208819  0.975796  1
  Li  Li1497  1  0.708819  0.260229  0.024204  1
  Li  Li1498  1  0.760229  0.791181  0.975796  1
  Li  Li1499  1  0.291181  0.739771  0.024204  1
  Li  Li1500  1  0.239771  0.791181  0.024204  1
  Li  Li1501  1  0.291181  0.260229  0.975796  1
  Li  Li1502  1  0.760229  0.208819  0.024204  1
  Li  Li1503  1  0.708819  0.739771  0.975796  1
  Li  Li1504  1  0.975796  0.739771  0.708819  1
  Li  Li1505  1  0.975796  0.260229  0.291181  1
  Li  Li1506  1  0.760229  0.524204  0.708819  1
  Li  Li1507  1  0.024204  0.739771  0.291181  1
  Li  Li1508  1  0.239771  0.475796  0.708819  1
  Li  Li1509  1  0.024204  0.260229  0.708819  1
  Li  Li1510  1  0.760229  0.475796  0.291181  1
  Li  Li1511  1  0.239771  0.524204  0.291181  1
  Li  Li1512  1  0.708819  0.975796  0.739771  1
  Li  Li1513  1  0.975796  0.291181  0.260229  1
  Li  Li1514  1  0.291181  0.024204  0.739771  1
  Li  Li1515  1  0.024204  0.708819  0.260229  1
  Li  Li1516  1  0.708819  0.024204  0.260229  1
  Li  Li1517  1  0.024204  0.291181  0.739771  1
  Li  Li1518  1  0.291181  0.975796  0.260229  1
  Li  Li1519  1  0.975796  0.708819  0.739771  1
  Li  Li1520  1  0.239771  0.708819  0.475796  1
  Li  Li1521  1  0.708819  0.760229  0.524204  1
  Li  Li1522  1  0.760229  0.291181  0.475796  1
  Li  Li1523  1  0.291181  0.239771  0.524204  1
  Li  Li1524  1  0.239771  0.291181  0.524204  1
  Li  Li1525  1  0.291181  0.760229  0.475796  1
  Li  Li1526  1  0.760229  0.708819  0.524204  1
  Li  Li1527  1  0.708819  0.239771  0.475796  1
  Li  Li1528  1  0.975796  0.239771  0.208819  1
  Li  Li1529  1  0.975796  0.760229  0.791181  1
  Li  Li1530  1  0.760229  0.024204  0.208819  1
  Li  Li1531  1  0.024204  0.239771  0.791181  1
  Li  Li1532  1  0.239771  0.975796  0.208819  1
  Li  Li1533  1  0.024204  0.760229  0.208819  1
  Li  Li1534  1  0.760229  0.975796  0.791181  1
  Li  Li1535  1  0.239771  0.024204  0.791181  1
  Li  Li1536  1  0.220029  0.005479  0.773621  1
  Li  Li1537  1  0.005479  0.779971  0.226379  1
  Li  Li1538  1  0.779971  0.994521  0.773621  1
  Li  Li1539  1  0.994521  0.220029  0.226379  1
  Li  Li1540  1  0.220029  0.994521  0.226379  1
  Li  Li1541  1  0.994521  0.779971  0.773621  1
  Li  Li1542  1  0.779971  0.005479  0.226379  1
  Li  Li1543  1  0.005479  0.220029  0.773621  1
  Li  Li1544  1  0.773621  0.220029  0.005479  1
  Li  Li1545  1  0.220029  0.226379  0.994521  1
  Li  Li1546  1  0.226379  0.779971  0.005479  1
  Li  Li1547  1  0.779971  0.773621  0.994521  1
  Li  Li1548  1  0.773621  0.779971  0.994521  1
  Li  Li1549  1  0.779971  0.226379  0.005479  1
  Li  Li1550  1  0.226379  0.220029  0.994521  1
  Li  Li1551  1  0.220029  0.773621  0.005479  1
  Li  Li1552  1  0.005479  0.773621  0.220029  1
  Li  Li1553  1  0.005479  0.226379  0.779971  1
  Li  Li1554  1  0.226379  0.994521  0.220029  1
  Li  Li1555  1  0.994521  0.773621  0.779971  1
  Li  Li1556  1  0.773621  0.005479  0.220029  1
  Li  Li1557  1  0.994521  0.226379  0.220029  1
  Li  Li1558  1  0.226379  0.005479  0.779971  1
  Li  Li1559  1  0.773621  0.994521  0.779971  1
  Li  Li1560  1  0.220029  0.505479  0.273621  1
  Li  Li1561  1  0.005479  0.279971  0.726379  1
  Li  Li1562  1  0.779971  0.494521  0.273621  1
  Li  Li1563  1  0.994521  0.720029  0.726379  1
  Li  Li1564  1  0.220029  0.494521  0.726379  1
  Li  Li1565  1  0.994521  0.279971  0.273621  1
  Li  Li1566  1  0.779971  0.505479  0.726379  1
  Li  Li1567  1  0.005479  0.720029  0.273621  1
  Li  Li1568  1  0.773621  0.720029  0.505479  1
  Li  Li1569  1  0.220029  0.726379  0.494521  1
  Li  Li1570  1  0.226379  0.279971  0.505479  1
  Li  Li1571  1  0.779971  0.273621  0.494521  1
  Li  Li1572  1  0.773621  0.279971  0.494521  1
  Li  Li1573  1  0.779971  0.726379  0.505479  1
  Li  Li1574  1  0.226379  0.720029  0.494521  1
  Li  Li1575  1  0.220029  0.273621  0.505479  1
  Li  Li1576  1  0.005479  0.273621  0.720029  1
  Li  Li1577  1  0.005479  0.726379  0.279971  1
  Li  Li1578  1  0.226379  0.494521  0.720029  1
  Li  Li1579  1  0.994521  0.273621  0.279971  1
  Li  Li1580  1  0.773621  0.505479  0.720029  1
  Li  Li1581  1  0.994521  0.726379  0.720029  1
  Li  Li1582  1  0.226379  0.505479  0.279971  1
  Li  Li1583  1  0.773621  0.494521  0.279971  1
  Li  Li1584  1  0.720029  0.005479  0.273621  1
  Li  Li1585  1  0.505479  0.779971  0.726379  1
  Li  Li1586  1  0.279971  0.994521  0.273621  1
  Li  Li1587  1  0.494521  0.220029  0.726379  1
  Li  Li1588  1  0.720029  0.994521  0.726379  1
  Li  Li1589  1  0.494521  0.779971  0.273621  1
  Li  Li1590  1  0.279971  0.005479  0.726379  1
  Li  Li1591  1  0.505479  0.220029  0.273621  1
  Li  Li1592  1  0.273621  0.220029  0.505479  1
  Li  Li1593  1  0.720029  0.226379  0.494521  1
  Li  Li1594  1  0.726379  0.779971  0.505479  1
  Li  Li1595  1  0.279971  0.773621  0.494521  1
  Li  Li1596  1  0.273621  0.779971  0.494521  1
  Li  Li1597  1  0.279971  0.226379  0.505479  1
  Li  Li1598  1  0.726379  0.220029  0.494521  1
  Li  Li1599  1  0.720029  0.773621  0.505479  1
  Li  Li1600  1  0.505479  0.773621  0.720029  1
  Li  Li1601  1  0.505479  0.226379  0.279971  1
  Li  Li1602  1  0.726379  0.994521  0.720029  1
  Li  Li1603  1  0.494521  0.773621  0.279971  1
  Li  Li1604  1  0.273621  0.005479  0.720029  1
  Li  Li1605  1  0.494521  0.226379  0.720029  1
  Li  Li1606  1  0.726379  0.005479  0.279971  1
  Li  Li1607  1  0.273621  0.994521  0.279971  1
  Li  Li1608  1  0.720029  0.505479  0.773621  1
  Li  Li1609  1  0.505479  0.279971  0.226379  1
  Li  Li1610  1  0.279971  0.494521  0.773621  1
  Li  Li1611  1  0.494521  0.720029  0.226379  1
  Li  Li1612  1  0.720029  0.494521  0.226379  1
  Li  Li1613  1  0.494521  0.279971  0.773621  1
  Li  Li1614  1  0.279971  0.505479  0.226379  1
  Li  Li1615  1  0.505479  0.720029  0.773621  1
  Li  Li1616  1  0.273621  0.720029  0.005479  1
  Li  Li1617  1  0.720029  0.726379  0.994521  1
  Li  Li1618  1  0.726379  0.279971  0.005479  1
  Li  Li1619  1  0.279971  0.273621  0.994521  1
  Li  Li1620  1  0.273621  0.279971  0.994521  1
  Li  Li1621  1  0.279971  0.726379  0.005479  1
  Li  Li1622  1  0.726379  0.720029  0.994521  1
  Li  Li1623  1  0.720029  0.273621  0.005479  1
  Li  Li1624  1  0.505479  0.273621  0.220029  1
  Li  Li1625  1  0.505479  0.726379  0.779971  1
  Li  Li1626  1  0.726379  0.494521  0.220029  1
  Li  Li1627  1  0.494521  0.273621  0.779971  1
  Li  Li1628  1  0.273621  0.505479  0.220029  1
  Li  Li1629  1  0.494521  0.726379  0.220029  1
  Li  Li1630  1  0.726379  0.505479  0.779971  1
  Li  Li1631  1  0.273621  0.494521  0.779971  1
  Li  Li1632  1  0.224089  0.268132  0.531411  1
  Li  Li1633  1  0.268132  0.775911  0.468589  1
  Li  Li1634  1  0.775911  0.731869  0.531411  1
  Li  Li1635  1  0.731869  0.224089  0.468589  1
  Li  Li1636  1  0.224089  0.731869  0.468589  1
  Li  Li1637  1  0.731869  0.775911  0.531411  1
  Li  Li1638  1  0.775911  0.268132  0.468589  1
  Li  Li1639  1  0.268132  0.224089  0.531411  1
  Li  Li1640  1  0.531411  0.224089  0.268132  1
  Li  Li1641  1  0.224089  0.468589  0.731869  1
  Li  Li1642  1  0.468589  0.775911  0.268132  1
  Li  Li1643  1  0.775911  0.531411  0.731869  1
  Li  Li1644  1  0.531411  0.775911  0.731869  1
  Li  Li1645  1  0.775911  0.468589  0.268132  1
  Li  Li1646  1  0.468589  0.224089  0.731869  1
  Li  Li1647  1  0.224089  0.531411  0.268132  1
  Li  Li1648  1  0.268132  0.531411  0.224089  1
  Li  Li1649  1  0.268132  0.468589  0.775911  1
  Li  Li1650  1  0.468589  0.731869  0.224089  1
  Li  Li1651  1  0.731869  0.531411  0.775911  1
  Li  Li1652  1  0.531411  0.268132  0.224089  1
  Li  Li1653  1  0.731869  0.468589  0.224089  1
  Li  Li1654  1  0.468589  0.268132  0.775911  1
  Li  Li1655  1  0.531411  0.731869  0.775911  1
  Li  Li1656  1  0.224089  0.768131  0.031411  1
  Li  Li1657  1  0.268132  0.275911  0.968589  1
  Li  Li1658  1  0.775911  0.231869  0.031411  1
  Li  Li1659  1  0.731869  0.724089  0.968589  1
  Li  Li1660  1  0.224089  0.231869  0.968589  1
  Li  Li1661  1  0.731869  0.275911  0.031411  1
  Li  Li1662  1  0.775911  0.768131  0.968589  1
  Li  Li1663  1  0.268132  0.724089  0.031411  1
  Li  Li1664  1  0.531411  0.724089  0.768131  1
  Li  Li1665  1  0.224089  0.968589  0.231869  1
  Li  Li1666  1  0.468589  0.275911  0.768131  1
  Li  Li1667  1  0.775911  0.031411  0.231869  1
  Li  Li1668  1  0.531411  0.275911  0.231869  1
  Li  Li1669  1  0.775911  0.968589  0.768131  1
  Li  Li1670  1  0.468589  0.724089  0.231869  1
  Li  Li1671  1  0.224089  0.031411  0.768131  1
  Li  Li1672  1  0.268132  0.031411  0.724089  1
  Li  Li1673  1  0.268132  0.968589  0.275911  1
  Li  Li1674  1  0.468589  0.231869  0.724089  1
  Li  Li1675  1  0.731869  0.031411  0.275911  1
  Li  Li1676  1  0.531411  0.768131  0.724089  1
  Li  Li1677  1  0.731869  0.968589  0.724089  1
  Li  Li1678  1  0.468589  0.768131  0.275911  1
  Li  Li1679  1  0.531411  0.231869  0.275911  1
  Li  Li1680  1  0.724089  0.268132  0.031411  1
  Li  Li1681  1  0.768131  0.775911  0.968589  1
  Li  Li1682  1  0.275911  0.731869  0.031411  1
  Li  Li1683  1  0.231869  0.224089  0.968589  1
  Li  Li1684  1  0.724089  0.731869  0.968589  1
  Li  Li1685  1  0.231869  0.775911  0.031411  1
  Li  Li1686  1  0.275911  0.268132  0.968589  1
  Li  Li1687  1  0.768131  0.224089  0.031411  1
  Li  Li1688  1  0.031411  0.224089  0.768131  1
  Li  Li1689  1  0.724089  0.468589  0.231869  1
  Li  Li1690  1  0.968589  0.775911  0.768131  1
  Li  Li1691  1  0.275911  0.531411  0.231869  1
  Li  Li1692  1  0.031411  0.775911  0.231869  1
  Li  Li1693  1  0.275911  0.468589  0.768131  1
  Li  Li1694  1  0.968589  0.224089  0.231869  1
  Li  Li1695  1  0.724089  0.531411  0.768131  1
  Li  Li1696  1  0.768131  0.531411  0.724089  1
  Li  Li1697  1  0.768131  0.468589  0.275911  1
  Li  Li1698  1  0.968589  0.731869  0.724089  1
  Li  Li1699  1  0.231869  0.531411  0.275911  1
  Li  Li1700  1  0.031411  0.268132  0.724089  1
  Li  Li1701  1  0.231869  0.468589  0.724089  1
  Li  Li1702  1  0.968589  0.268132  0.275911  1
  Li  Li1703  1  0.031411  0.731869  0.275911  1
  Li  Li1704  1  0.724089  0.768131  0.531411  1
  Li  Li1705  1  0.768131  0.275911  0.468589  1
  Li  Li1706  1  0.275911  0.231869  0.531411  1
  Li  Li1707  1  0.231869  0.724089  0.468589  1
  Li  Li1708  1  0.724089  0.231869  0.468589  1
  Li  Li1709  1  0.231869  0.275911  0.531411  1
  Li  Li1710  1  0.275911  0.768131  0.468589  1
  Li  Li1711  1  0.768131  0.724089  0.531411  1
  Li  Li1712  1  0.031411  0.724089  0.268132  1
  Li  Li1713  1  0.724089  0.968589  0.731869  1
  Li  Li1714  1  0.968589  0.275911  0.268132  1
  Li  Li1715  1  0.275911  0.031411  0.731869  1
  Li  Li1716  1  0.031411  0.275911  0.731869  1
  Li  Li1717  1  0.275911  0.968589  0.268132  1
  Li  Li1718  1  0.968589  0.724089  0.731869  1
  Li  Li1719  1  0.724089  0.031411  0.268132  1
  Li  Li1720  1  0.768131  0.031411  0.224089  1
  Li  Li1721  1  0.768131  0.968589  0.775911  1
  Li  Li1722  1  0.968589  0.231869  0.224089  1
  Li  Li1723  1  0.231869  0.031411  0.775911  1
  Li  Li1724  1  0.031411  0.768131  0.224089  1
  Li  Li1725  1  0.231869  0.968589  0.224089  1
  Li  Li1726  1  0.968589  0.768131  0.775911  1
  Li  Li1727  1  0.031411  0.231869  0.775911  1
  Li  Li1728  1  0.304789  0.156128  0.536609  1
  Li  Li1729  1  0.156128  0.695211  0.463391  1
  Li  Li1730  1  0.695211  0.843872  0.536609  1
  Li  Li1731  1  0.843872  0.304789  0.463391  1
  Li  Li1732  1  0.304789  0.843872  0.463391  1
  Li  Li1733  1  0.843872  0.695211  0.536609  1
  Li  Li1734  1  0.695211  0.156128  0.463391  1
  Li  Li1735  1  0.156128  0.304789  0.536609  1
  Li  Li1736  1  0.536609  0.304789  0.156128  1
  Li  Li1737  1  0.304789  0.463391  0.843872  1
  Li  Li1738  1  0.463391  0.695211  0.156128  1
  Li  Li1739  1  0.695211  0.536609  0.843872  1
  Li  Li1740  1  0.536609  0.695211  0.843872  1
  Li  Li1741  1  0.695211  0.463391  0.156128  1
  Li  Li1742  1  0.463391  0.304789  0.843872  1
  Li  Li1743  1  0.304789  0.536609  0.156128  1
  Li  Li1744  1  0.156128  0.536609  0.304789  1
  Li  Li1745  1  0.156128  0.463391  0.695211  1
  Li  Li1746  1  0.463391  0.843872  0.304789  1
  Li  Li1747  1  0.843872  0.536609  0.695211  1
  Li  Li1748  1  0.536609  0.156128  0.304789  1
  Li  Li1749  1  0.843872  0.463391  0.304789  1
  Li  Li1750  1  0.463391  0.156128  0.695211  1
  Li  Li1751  1  0.536609  0.843872  0.695211  1
  Li  Li1752  1  0.304789  0.656128  0.036609  1
  Li  Li1753  1  0.156128  0.195211  0.963391  1
  Li  Li1754  1  0.695211  0.343872  0.036609  1
  Li  Li1755  1  0.843872  0.804789  0.963391  1
  Li  Li1756  1  0.304789  0.343872  0.963391  1
  Li  Li1757  1  0.843872  0.195211  0.036609  1
  Li  Li1758  1  0.695211  0.656128  0.963391  1
  Li  Li1759  1  0.156128  0.804789  0.036609  1
  Li  Li1760  1  0.536609  0.804789  0.656128  1
  Li  Li1761  1  0.304789  0.963391  0.343872  1
  Li  Li1762  1  0.463391  0.195211  0.656128  1
  Li  Li1763  1  0.695211  0.036609  0.343872  1
  Li  Li1764  1  0.536609  0.195211  0.343872  1
  Li  Li1765  1  0.695211  0.963391  0.656128  1
  Li  Li1766  1  0.463391  0.804789  0.343872  1
  Li  Li1767  1  0.304789  0.036609  0.656128  1
  Li  Li1768  1  0.156128  0.036609  0.804789  1
  Li  Li1769  1  0.156128  0.963391  0.195211  1
  Li  Li1770  1  0.463391  0.343872  0.804789  1
  Li  Li1771  1  0.843872  0.036609  0.195211  1
  Li  Li1772  1  0.536609  0.656128  0.804789  1
  Li  Li1773  1  0.843872  0.963391  0.804789  1
  Li  Li1774  1  0.463391  0.656128  0.195211  1
  Li  Li1775  1  0.536609  0.343872  0.195211  1
  Li  Li1776  1  0.804789  0.156128  0.036609  1
  Li  Li1777  1  0.656128  0.695211  0.963391  1
  Li  Li1778  1  0.195211  0.843872  0.036609  1
  Li  Li1779  1  0.343872  0.304789  0.963391  1
  Li  Li1780  1  0.804789  0.843872  0.963391  1
  Li  Li1781  1  0.343872  0.695211  0.036609  1
  Li  Li1782  1  0.195211  0.156128  0.963391  1
  Li  Li1783  1  0.656128  0.304789  0.036609  1
  Li  Li1784  1  0.036609  0.304789  0.656128  1
  Li  Li1785  1  0.804789  0.463391  0.343872  1
  Li  Li1786  1  0.963391  0.695211  0.656128  1
  Li  Li1787  1  0.195211  0.536609  0.343872  1
  Li  Li1788  1  0.036609  0.695211  0.343872  1
  Li  Li1789  1  0.195211  0.463391  0.656128  1
  Li  Li1790  1  0.963391  0.304789  0.343872  1
  Li  Li1791  1  0.804789  0.536609  0.656128  1
  Li  Li1792  1  0.656128  0.536609  0.804789  1
  Li  Li1793  1  0.656128  0.463391  0.195211  1
  Li  Li1794  1  0.963391  0.843872  0.804789  1
  Li  Li1795  1  0.343872  0.536609  0.195211  1
  Li  Li1796  1  0.036609  0.156128  0.804789  1
  Li  Li1797  1  0.343872  0.463391  0.804789  1
  Li  Li1798  1  0.963391  0.156128  0.195211  1
  Li  Li1799  1  0.036609  0.843872  0.195211  1
  Li  Li1800  1  0.804789  0.656128  0.536609  1
  Li  Li1801  1  0.656128  0.195211  0.463391  1
  Li  Li1802  1  0.195211  0.343872  0.536609  1
  Li  Li1803  1  0.343872  0.804789  0.463391  1
  Li  Li1804  1  0.804789  0.343872  0.463391  1
  Li  Li1805  1  0.343872  0.195211  0.536609  1
  Li  Li1806  1  0.195211  0.656128  0.463391  1
  Li  Li1807  1  0.656128  0.804789  0.536609  1
  Li  Li1808  1  0.036609  0.804789  0.156128  1
  Li  Li1809  1  0.804789  0.963391  0.843872  1
  Li  Li1810  1  0.963391  0.195211  0.156128  1
  Li  Li1811  1  0.195211  0.036609  0.843872  1
  Li  Li1812  1  0.036609  0.195211  0.843872  1
  Li  Li1813  1  0.195211  0.963391  0.156128  1
  Li  Li1814  1  0.963391  0.804789  0.843872  1
  Li  Li1815  1  0.804789  0.036609  0.156128  1
  Li  Li1816  1  0.656128  0.036609  0.304789  1
  Li  Li1817  1  0.656128  0.963391  0.695211  1
  Li  Li1818  1  0.963391  0.343872  0.304789  1
  Li  Li1819  1  0.343872  0.036609  0.695211  1
  Li  Li1820  1  0.036609  0.656128  0.304789  1
  Li  Li1821  1  0.343872  0.963391  0.304789  1
  Li  Li1822  1  0.963391  0.656128  0.695211  1
  Li  Li1823  1  0.036609  0.343872  0.695211  1
  Li  Li1824  1  0.250520  0.106740  0.561922  1
  Li  Li1825  1  0.106740  0.749480  0.438078  1
  Li  Li1826  1  0.749480  0.893260  0.561922  1
  Li  Li1827  1  0.893260  0.250520  0.438078  1
  Li  Li1828  1  0.250520  0.893260  0.438078  1
  Li  Li1829  1  0.893260  0.749480  0.561922  1
  Li  Li1830  1  0.749480  0.106740  0.438078  1
  Li  Li1831  1  0.106740  0.250520  0.561922  1
  Li  Li1832  1  0.561922  0.250520  0.106740  1
  Li  Li1833  1  0.250520  0.438078  0.893260  1
  Li  Li1834  1  0.438078  0.749480  0.106740  1
  Li  Li1835  1  0.749480  0.561922  0.893260  1
  Li  Li1836  1  0.561922  0.749480  0.893260  1
  Li  Li1837  1  0.749480  0.438078  0.106740  1
  Li  Li1838  1  0.438078  0.250520  0.893260  1
  Li  Li1839  1  0.250520  0.561922  0.106740  1
  Li  Li1840  1  0.106740  0.561922  0.250520  1
  Li  Li1841  1  0.106740  0.438078  0.749480  1
  Li  Li1842  1  0.438078  0.893260  0.250520  1
  Li  Li1843  1  0.893260  0.561922  0.749480  1
  Li  Li1844  1  0.561922  0.106740  0.250520  1
  Li  Li1845  1  0.893260  0.438078  0.250520  1
  Li  Li1846  1  0.438078  0.106740  0.749480  1
  Li  Li1847  1  0.561922  0.893260  0.749480  1
  Li  Li1848  1  0.250520  0.606740  0.061922  1
  Li  Li1849  1  0.106740  0.249479  0.938078  1
  Li  Li1850  1  0.749480  0.393260  0.061922  1
  Li  Li1851  1  0.893260  0.750521  0.938078  1
  Li  Li1852  1  0.250520  0.393260  0.938078  1
  Li  Li1853  1  0.893260  0.249479  0.061922  1
  Li  Li1854  1  0.749480  0.606740  0.938078  1
  Li  Li1855  1  0.106740  0.750521  0.061922  1
  Li  Li1856  1  0.561922  0.750521  0.606740  1
  Li  Li1857  1  0.250520  0.938078  0.393260  1
  Li  Li1858  1  0.438078  0.249479  0.606740  1
  Li  Li1859  1  0.749480  0.061922  0.393260  1
  Li  Li1860  1  0.561922  0.249479  0.393260  1
  Li  Li1861  1  0.749480  0.938078  0.606740  1
  Li  Li1862  1  0.438078  0.750521  0.393260  1
  Li  Li1863  1  0.250520  0.061922  0.606740  1
  Li  Li1864  1  0.106740  0.061922  0.750521  1
  Li  Li1865  1  0.106740  0.938078  0.249479  1
  Li  Li1866  1  0.438078  0.393260  0.750521  1
  Li  Li1867  1  0.893260  0.061922  0.249479  1
  Li  Li1868  1  0.561922  0.606740  0.750521  1
  Li  Li1869  1  0.893260  0.938078  0.750521  1
  Li  Li1870  1  0.438078  0.606740  0.249479  1
  Li  Li1871  1  0.561922  0.393260  0.249479  1
  Li  Li1872  1  0.750521  0.106740  0.061922  1
  Li  Li1873  1  0.606740  0.749480  0.938078  1
  Li  Li1874  1  0.249479  0.893260  0.061922  1
  Li  Li1875  1  0.393260  0.250520  0.938078  1
  Li  Li1876  1  0.750521  0.893260  0.938078  1
  Li  Li1877  1  0.393260  0.749480  0.061922  1
  Li  Li1878  1  0.249479  0.106740  0.938078  1
  Li  Li1879  1  0.606740  0.250520  0.061922  1
  Li  Li1880  1  0.061922  0.250520  0.606740  1
  Li  Li1881  1  0.750521  0.438078  0.393260  1
  Li  Li1882  1  0.938078  0.749480  0.606740  1
  Li  Li1883  1  0.249479  0.561922  0.393260  1
  Li  Li1884  1  0.061922  0.749480  0.393260  1
  Li  Li1885  1  0.249479  0.438078  0.606740  1
  Li  Li1886  1  0.938078  0.250520  0.393260  1
  Li  Li1887  1  0.750521  0.561922  0.606740  1
  Li  Li1888  1  0.606740  0.561922  0.750521  1
  Li  Li1889  1  0.606740  0.438078  0.249479  1
  Li  Li1890  1  0.938078  0.893260  0.750521  1
  Li  Li1891  1  0.393260  0.561922  0.249479  1
  Li  Li1892  1  0.061922  0.106740  0.750521  1
  Li  Li1893  1  0.393260  0.438078  0.750521  1
  Li  Li1894  1  0.938078  0.106740  0.249479  1
  Li  Li1895  1  0.061922  0.893260  0.249479  1
  Li  Li1896  1  0.750521  0.606740  0.561922  1
  Li  Li1897  1  0.606740  0.249479  0.438078  1
  Li  Li1898  1  0.249479  0.393260  0.561922  1
  Li  Li1899  1  0.393260  0.750521  0.438078  1
  Li  Li1900  1  0.750521  0.393260  0.438078  1
  Li  Li1901  1  0.393260  0.249479  0.561922  1
  Li  Li1902  1  0.249479  0.606740  0.438078  1
  Li  Li1903  1  0.606740  0.750521  0.561922  1
  Li  Li1904  1  0.061922  0.750521  0.106740  1
  Li  Li1905  1  0.750521  0.938078  0.893260  1
  Li  Li1906  1  0.938078  0.249479  0.106740  1
  Li  Li1907  1  0.249479  0.061922  0.893260  1
  Li  Li1908  1  0.061922  0.249479  0.893260  1
  Li  Li1909  1  0.249479  0.938078  0.106740  1
  Li  Li1910  1  0.938078  0.750521  0.893260  1
  Li  Li1911  1  0.750521  0.061922  0.106740  1
  Li  Li1912  1  0.606740  0.061922  0.250520  1
  Li  Li1913  1  0.606740  0.938078  0.749480  1
  Li  Li1914  1  0.938078  0.393260  0.250520  1
  Li  Li1915  1  0.393260  0.061922  0.749480  1
  Li  Li1916  1  0.061922  0.606740  0.250520  1
  Li  Li1917  1  0.393260  0.938078  0.250520  1
  Li  Li1918  1  0.938078  0.606740  0.749480  1
  Li  Li1919  1  0.061922  0.393260  0.749480  1
  Li  Li1920  1  0.335487  0.297988  0.987158  1
  Li  Li1921  1  0.297988  0.664513  0.012842  1
  Li  Li1922  1  0.664513  0.702012  0.987158  1
  Li  Li1923  1  0.702012  0.335487  0.012842  1
  Li  Li1924  1  0.335487  0.702012  0.012842  1
  Li  Li1925  1  0.702012  0.664513  0.987158  1
  Li  Li1926  1  0.664513  0.297988  0.012842  1
  Li  Li1927  1  0.297988  0.335487  0.987158  1
  Li  Li1928  1  0.987158  0.335487  0.297988  1
  Li  Li1929  1  0.335487  0.012842  0.702012  1
  Li  Li1930  1  0.012842  0.664513  0.297988  1
  Li  Li1931  1  0.664513  0.987158  0.702012  1
  Li  Li1932  1  0.987158  0.664513  0.702012  1
  Li  Li1933  1  0.664513  0.012842  0.297988  1
  Li  Li1934  1  0.012842  0.335487  0.702012  1
  Li  Li1935  1  0.335487  0.987158  0.297988  1
  Li  Li1936  1  0.297988  0.987158  0.335487  1
  Li  Li1937  1  0.297988  0.012842  0.664513  1
  Li  Li1938  1  0.012842  0.702012  0.335487  1
  Li  Li1939  1  0.702012  0.987158  0.664513  1
  Li  Li1940  1  0.987158  0.297988  0.335487  1
  Li  Li1941  1  0.702012  0.012842  0.335487  1
  Li  Li1942  1  0.012842  0.297988  0.664513  1
  Li  Li1943  1  0.987158  0.702012  0.664513  1
  Li  Li1944  1  0.335487  0.797988  0.487158  1
  Li  Li1945  1  0.297988  0.164513  0.512842  1
  Li  Li1946  1  0.664513  0.202012  0.487158  1
  Li  Li1947  1  0.702012  0.835487  0.512842  1
  Li  Li1948  1  0.335487  0.202012  0.512842  1
  Li  Li1949  1  0.702012  0.164513  0.487158  1
  Li  Li1950  1  0.664513  0.797988  0.512842  1
  Li  Li1951  1  0.297988  0.835487  0.487158  1
  Li  Li1952  1  0.987158  0.835487  0.797988  1
  Li  Li1953  1  0.335487  0.512842  0.202012  1
  Li  Li1954  1  0.012842  0.164513  0.797988  1
  Li  Li1955  1  0.664513  0.487158  0.202012  1
  Li  Li1956  1  0.987158  0.164513  0.202012  1
  Li  Li1957  1  0.664513  0.512842  0.797988  1
  Li  Li1958  1  0.012842  0.835487  0.202012  1
  Li  Li1959  1  0.335487  0.487158  0.797988  1
  Li  Li1960  1  0.297988  0.487158  0.835487  1
  Li  Li1961  1  0.297988  0.512842  0.164513  1
  Li  Li1962  1  0.012842  0.202012  0.835487  1
  Li  Li1963  1  0.702012  0.487158  0.164513  1
  Li  Li1964  1  0.987158  0.797988  0.835487  1
  Li  Li1965  1  0.702012  0.512842  0.835487  1
  Li  Li1966  1  0.012842  0.797988  0.164513  1
  Li  Li1967  1  0.987158  0.202012  0.164513  1
  Li  Li1968  1  0.835487  0.297988  0.487158  1
  Li  Li1969  1  0.797988  0.664513  0.512842  1
  Li  Li1970  1  0.164513  0.702012  0.487158  1
  Li  Li1971  1  0.202012  0.335487  0.512842  1
  Li  Li1972  1  0.835487  0.702012  0.512842  1
  Li  Li1973  1  0.202012  0.664513  0.487158  1
  Li  Li1974  1  0.164513  0.297988  0.512842  1
  Li  Li1975  1  0.797988  0.335487  0.487158  1
  Li  Li1976  1  0.487158  0.335487  0.797988  1
  Li  Li1977  1  0.835487  0.012842  0.202012  1
  Li  Li1978  1  0.512842  0.664513  0.797988  1
  Li  Li1979  1  0.164513  0.987158  0.202012  1
  Li  Li1980  1  0.487158  0.664513  0.202012  1
  Li  Li1981  1  0.164513  0.012842  0.797988  1
  Li  Li1982  1  0.512842  0.335487  0.202012  1
  Li  Li1983  1  0.835487  0.987158  0.797988  1
  Li  Li1984  1  0.797988  0.987158  0.835487  1
  Li  Li1985  1  0.797988  0.012842  0.164513  1
  Li  Li1986  1  0.512842  0.702012  0.835487  1
  Li  Li1987  1  0.202012  0.987158  0.164513  1
  Li  Li1988  1  0.487158  0.297988  0.835487  1
  Li  Li1989  1  0.202012  0.012842  0.835487  1
  Li  Li1990  1  0.512842  0.297988  0.164513  1
  Li  Li1991  1  0.487158  0.702012  0.164513  1
  Li  Li1992  1  0.835487  0.797988  0.987158  1
  Li  Li1993  1  0.797988  0.164513  0.012842  1
  Li  Li1994  1  0.164513  0.202012  0.987158  1
  Li  Li1995  1  0.202012  0.835487  0.012842  1
  Li  Li1996  1  0.835487  0.202012  0.012842  1
  Li  Li1997  1  0.202012  0.164513  0.987158  1
  Li  Li1998  1  0.164513  0.797988  0.012842  1
  Li  Li1999  1  0.797988  0.835487  0.987158  1
  Li  Li2000  1  0.487158  0.835487  0.297988  1
  Li  Li2001  1  0.835487  0.512842  0.702012  1
  Li  Li2002  1  0.512842  0.164513  0.297988  1
  Li  Li2003  1  0.164513  0.487158  0.702012  1
  Li  Li2004  1  0.487158  0.164513  0.702012  1
  Li  Li2005  1  0.164513  0.512842  0.297988  1
  Li  Li2006  1  0.512842  0.835487  0.702012  1
  Li  Li2007  1  0.835487  0.487158  0.297988  1
  Li  Li2008  1  0.797988  0.487158  0.335487  1
  Li  Li2009  1  0.797988  0.512842  0.664513  1
  Li  Li2010  1  0.512842  0.202012  0.335487  1
  Li  Li2011  1  0.202012  0.487158  0.664513  1
  Li  Li2012  1  0.487158  0.797988  0.335487  1
  Li  Li2013  1  0.202012  0.512842  0.335487  1
  Li  Li2014  1  0.512842  0.797988  0.664513  1
  Li  Li2015  1  0.487158  0.202012  0.664513  1
  Li  Li2016  1  0.039563  0.215424  0.781174  1
  Li  Li2017  1  0.215424  0.960437  0.218826  1
  Li  Li2018  1  0.960437  0.784576  0.781174  1
  Li  Li2019  1  0.784576  0.039563  0.218826  1
  Li  Li2020  1  0.039563  0.784576  0.218826  1
  Li  Li2021  1  0.784576  0.960437  0.781174  1
  Li  Li2022  1  0.960437  0.215424  0.218826  1
  Li  Li2023  1  0.215424  0.039563  0.781174  1
  Li  Li2024  1  0.781174  0.039563  0.215424  1
  Li  Li2025  1  0.039563  0.218826  0.784576  1
  Li  Li2026  1  0.218826  0.960437  0.215424  1
  Li  Li2027  1  0.960437  0.781174  0.784576  1
  Li  Li2028  1  0.781174  0.960437  0.784576  1
  Li  Li2029  1  0.960437  0.218826  0.215424  1
  Li  Li2030  1  0.218826  0.039563  0.784576  1
  Li  Li2031  1  0.039563  0.781174  0.215424  1
  Li  Li2032  1  0.215424  0.781174  0.039563  1
  Li  Li2033  1  0.215424  0.218826  0.960437  1
  Li  Li2034  1  0.218826  0.784576  0.039563  1
  Li  Li2035  1  0.784576  0.781174  0.960437  1
  Li  Li2036  1  0.781174  0.215424  0.039563  1
  Li  Li2037  1  0.784576  0.218826  0.039563  1
  Li  Li2038  1  0.218826  0.215424  0.960437  1
  Li  Li2039  1  0.781174  0.784576  0.960437  1
  Li  Li2040  1  0.039563  0.715424  0.281174  1
  Li  Li2041  1  0.215424  0.460437  0.718826  1
  Li  Li2042  1  0.960437  0.284576  0.281174  1
  Li  Li2043  1  0.784576  0.539563  0.718826  1
  Li  Li2044  1  0.039563  0.284576  0.718826  1
  Li  Li2045  1  0.784576  0.460437  0.281174  1
  Li  Li2046  1  0.960437  0.715424  0.718826  1
  Li  Li2047  1  0.215424  0.539563  0.281174  1
  Li  Li2048  1  0.781174  0.539563  0.715424  1
  Li  Li2049  1  0.039563  0.718826  0.284576  1
  Li  Li2050  1  0.218826  0.460437  0.715424  1
  Li  Li2051  1  0.960437  0.281174  0.284576  1
  Li  Li2052  1  0.781174  0.460437  0.284576  1
  Li  Li2053  1  0.960437  0.718826  0.715424  1
  Li  Li2054  1  0.218826  0.539563  0.284576  1
  Li  Li2055  1  0.039563  0.281174  0.715424  1
  Li  Li2056  1  0.215424  0.281174  0.539563  1
  Li  Li2057  1  0.215424  0.718826  0.460437  1
  Li  Li2058  1  0.218826  0.284576  0.539563  1
  Li  Li2059  1  0.784576  0.281174  0.460437  1
  Li  Li2060  1  0.781174  0.715424  0.539563  1
  Li  Li2061  1  0.784576  0.718826  0.539563  1
  Li  Li2062  1  0.218826  0.715424  0.460437  1
  Li  Li2063  1  0.781174  0.284576  0.460437  1
  Li  Li2064  1  0.539563  0.215424  0.281174  1
  Li  Li2065  1  0.715424  0.960437  0.718826  1
  Li  Li2066  1  0.460437  0.784576  0.281174  1
  Li  Li2067  1  0.284576  0.039563  0.718826  1
  Li  Li2068  1  0.539563  0.784576  0.718826  1
  Li  Li2069  1  0.284576  0.960437  0.281174  1
  Li  Li2070  1  0.460437  0.215424  0.718826  1
  Li  Li2071  1  0.715424  0.039563  0.281174  1
  Li  Li2072  1  0.281174  0.039563  0.715424  1
  Li  Li2073  1  0.539563  0.218826  0.284576  1
  Li  Li2074  1  0.718826  0.960437  0.715424  1
  Li  Li2075  1  0.460437  0.781174  0.284576  1
  Li  Li2076  1  0.281174  0.960437  0.284576  1
  Li  Li2077  1  0.460437  0.218826  0.715424  1
  Li  Li2078  1  0.718826  0.039563  0.284576  1
  Li  Li2079  1  0.539563  0.781174  0.715424  1
  Li  Li2080  1  0.715424  0.781174  0.539563  1
  Li  Li2081  1  0.715424  0.218826  0.460437  1
  Li  Li2082  1  0.718826  0.784576  0.539563  1
  Li  Li2083  1  0.284576  0.781174  0.460437  1
  Li  Li2084  1  0.281174  0.215424  0.539563  1
  Li  Li2085  1  0.284576  0.218826  0.539563  1
  Li  Li2086  1  0.718826  0.215424  0.460437  1
  Li  Li2087  1  0.281174  0.784576  0.460437  1
  Li  Li2088  1  0.539563  0.715424  0.781174  1
  Li  Li2089  1  0.715424  0.460437  0.218826  1
  Li  Li2090  1  0.460437  0.284576  0.781174  1
  Li  Li2091  1  0.284576  0.539563  0.218826  1
  Li  Li2092  1  0.539563  0.284576  0.218826  1
  Li  Li2093  1  0.284576  0.460437  0.781174  1
  Li  Li2094  1  0.460437  0.715424  0.218826  1
  Li  Li2095  1  0.715424  0.539563  0.781174  1
  Li  Li2096  1  0.281174  0.539563  0.215424  1
  Li  Li2097  1  0.539563  0.718826  0.784576  1
  Li  Li2098  1  0.718826  0.460437  0.215424  1
  Li  Li2099  1  0.460437  0.281174  0.784576  1
  Li  Li2100  1  0.281174  0.460437  0.784576  1
  Li  Li2101  1  0.460437  0.718826  0.215424  1
  Li  Li2102  1  0.718826  0.539563  0.784576  1
  Li  Li2103  1  0.539563  0.281174  0.215424  1
  Li  Li2104  1  0.715424  0.281174  0.039563  1
  Li  Li2105  1  0.715424  0.718826  0.960437  1
  Li  Li2106  1  0.718826  0.284576  0.039563  1
  Li  Li2107  1  0.284576  0.281174  0.960437  1
  Li  Li2108  1  0.281174  0.715424  0.039563  1
  Li  Li2109  1  0.284576  0.718826  0.039563  1
  Li  Li2110  1  0.718826  0.715424  0.960437  1
  Li  Li2111  1  0.281174  0.284576  0.960437  1
  Li  Li2112  1  0.306386  0.293943  0.985140  1
  Li  Li2113  1  0.293943  0.693614  0.014860  1
  Li  Li2114  1  0.693614  0.706057  0.985140  1
  Li  Li2115  1  0.706057  0.306386  0.014860  1
  Li  Li2116  1  0.306386  0.706057  0.014860  1
  Li  Li2117  1  0.706057  0.693614  0.985140  1
  Li  Li2118  1  0.693614  0.293943  0.014860  1
  Li  Li2119  1  0.293943  0.306386  0.985140  1
  Li  Li2120  1  0.985140  0.306386  0.293943  1
  Li  Li2121  1  0.306386  0.014860  0.706057  1
  Li  Li2122  1  0.014860  0.693614  0.293943  1
  Li  Li2123  1  0.693614  0.985140  0.706057  1
  Li  Li2124  1  0.985140  0.693614  0.706057  1
  Li  Li2125  1  0.693614  0.014860  0.293943  1
  Li  Li2126  1  0.014860  0.306386  0.706057  1
  Li  Li2127  1  0.306386  0.985140  0.293943  1
  Li  Li2128  1  0.293943  0.985140  0.306386  1
  Li  Li2129  1  0.293943  0.014860  0.693614  1
  Li  Li2130  1  0.014860  0.706057  0.306386  1
  Li  Li2131  1  0.706057  0.985140  0.693614  1
  Li  Li2132  1  0.985140  0.293943  0.306386  1
  Li  Li2133  1  0.706057  0.014860  0.306386  1
  Li  Li2134  1  0.014860  0.293943  0.693614  1
  Li  Li2135  1  0.985140  0.706057  0.693614  1
  Li  Li2136  1  0.306386  0.793943  0.485140  1
  Li  Li2137  1  0.293943  0.193614  0.514860  1
  Li  Li2138  1  0.693614  0.206057  0.485140  1
  Li  Li2139  1  0.706057  0.806386  0.514860  1
  Li  Li2140  1  0.306386  0.206057  0.514860  1
  Li  Li2141  1  0.706057  0.193614  0.485140  1
  Li  Li2142  1  0.693614  0.793943  0.514860  1
  Li  Li2143  1  0.293943  0.806386  0.485140  1
  Li  Li2144  1  0.985140  0.806386  0.793943  1
  Li  Li2145  1  0.306386  0.514860  0.206057  1
  Li  Li2146  1  0.014860  0.193614  0.793943  1
  Li  Li2147  1  0.693614  0.485140  0.206057  1
  Li  Li2148  1  0.985140  0.193614  0.206057  1
  Li  Li2149  1  0.693614  0.514860  0.793943  1
  Li  Li2150  1  0.014860  0.806386  0.206057  1
  Li  Li2151  1  0.306386  0.485140  0.793943  1
  Li  Li2152  1  0.293943  0.485140  0.806386  1
  Li  Li2153  1  0.293943  0.514860  0.193614  1
  Li  Li2154  1  0.014860  0.206057  0.806386  1
  Li  Li2155  1  0.706057  0.485140  0.193614  1
  Li  Li2156  1  0.985140  0.793943  0.806386  1
  Li  Li2157  1  0.706057  0.514860  0.806386  1
  Li  Li2158  1  0.014860  0.793943  0.193614  1
  Li  Li2159  1  0.985140  0.206057  0.193614  1
  Li  Li2160  1  0.806386  0.293943  0.485140  1
  Li  Li2161  1  0.793943  0.693614  0.514860  1
  Li  Li2162  1  0.193614  0.706057  0.485140  1
  Li  Li2163  1  0.206057  0.306386  0.514860  1
  Li  Li2164  1  0.806386  0.706057  0.514860  1
  Li  Li2165  1  0.206057  0.693614  0.485140  1
  Li  Li2166  1  0.193614  0.293943  0.514860  1
  Li  Li2167  1  0.793943  0.306386  0.485140  1
  Li  Li2168  1  0.485140  0.306386  0.793943  1
  Li  Li2169  1  0.806386  0.014860  0.206057  1
  Li  Li2170  1  0.514860  0.693614  0.793943  1
  Li  Li2171  1  0.193614  0.985140  0.206057  1
  Li  Li2172  1  0.485140  0.693614  0.206057  1
  Li  Li2173  1  0.193614  0.014860  0.793943  1
  Li  Li2174  1  0.514860  0.306386  0.206057  1
  Li  Li2175  1  0.806386  0.985140  0.793943  1
  Li  Li2176  1  0.793943  0.985140  0.806386  1
  Li  Li2177  1  0.793943  0.014860  0.193614  1
  Li  Li2178  1  0.514860  0.706057  0.806386  1
  Li  Li2179  1  0.206057  0.985140  0.193614  1
  Li  Li2180  1  0.485140  0.293943  0.806386  1
  Li  Li2181  1  0.206057  0.014860  0.806386  1
  Li  Li2182  1  0.514860  0.293943  0.193614  1
  Li  Li2183  1  0.485140  0.706057  0.193614  1
  Li  Li2184  1  0.806386  0.793943  0.985140  1
  Li  Li2185  1  0.793943  0.193614  0.014860  1
  Li  Li2186  1  0.193614  0.206057  0.985140  1
  Li  Li2187  1  0.206057  0.806386  0.014860  1
  Li  Li2188  1  0.806386  0.206057  0.014860  1
  Li  Li2189  1  0.206057  0.193614  0.985140  1
  Li  Li2190  1  0.193614  0.793943  0.014860  1
  Li  Li2191  1  0.793943  0.806386  0.985140  1
  Li  Li2192  1  0.485140  0.806386  0.293943  1
  Li  Li2193  1  0.806386  0.514860  0.706057  1
  Li  Li2194  1  0.514860  0.193614  0.293943  1
  Li  Li2195  1  0.193614  0.485140  0.706057  1
  Li  Li2196  1  0.485140  0.193614  0.706057  1
  Li  Li2197  1  0.193614  0.514860  0.293943  1
  Li  Li2198  1  0.514860  0.806386  0.706057  1
  Li  Li2199  1  0.806386  0.485140  0.293943  1
  Li  Li2200  1  0.793943  0.485140  0.306386  1
  Li  Li2201  1  0.793943  0.514860  0.693614  1
  Li  Li2202  1  0.514860  0.206057  0.306386  1
  Li  Li2203  1  0.206057  0.485140  0.693614  1
  Li  Li2204  1  0.485140  0.793943  0.306386  1
  Li  Li2205  1  0.206057  0.514860  0.306386  1
  Li  Li2206  1  0.514860  0.793943  0.693614  1
  Li  Li2207  1  0.485140  0.206057  0.693614  1
  Li  Li2208  1  0.011930  0.208214  0.784623  1
  Li  Li2209  1  0.208214  0.988070  0.215377  1
  Li  Li2210  1  0.988070  0.791786  0.784623  1
  Li  Li2211  1  0.791786  0.011930  0.215377  1
  Li  Li2212  1  0.011930  0.791786  0.215377  1
  Li  Li2213  1  0.791786  0.988070  0.784623  1
  Li  Li2214  1  0.988070  0.208214  0.215377  1
  Li  Li2215  1  0.208214  0.011930  0.784623  1
  Li  Li2216  1  0.784623  0.011930  0.208214  1
  Li  Li2217  1  0.011930  0.215377  0.791786  1
  Li  Li2218  1  0.215377  0.988070  0.208214  1
  Li  Li2219  1  0.988070  0.784623  0.791786  1
  Li  Li2220  1  0.784623  0.988070  0.791786  1
  Li  Li2221  1  0.988070  0.215377  0.208214  1
  Li  Li2222  1  0.215377  0.011930  0.791786  1
  Li  Li2223  1  0.011930  0.784623  0.208214  1
  Li  Li2224  1  0.208214  0.784623  0.011930  1
  Li  Li2225  1  0.208214  0.215377  0.988070  1
  Li  Li2226  1  0.215377  0.791786  0.011930  1
  Li  Li2227  1  0.791786  0.784623  0.988070  1
  Li  Li2228  1  0.784623  0.208214  0.011930  1
  Li  Li2229  1  0.791786  0.215377  0.011930  1
  Li  Li2230  1  0.215377  0.208214  0.988070  1
  Li  Li2231  1  0.784623  0.791786  0.988070  1
  Li  Li2232  1  0.011930  0.708214  0.284623  1
  Li  Li2233  1  0.208214  0.488070  0.715377  1
  Li  Li2234  1  0.988070  0.291786  0.284623  1
  Li  Li2235  1  0.791786  0.511930  0.715377  1
  Li  Li2236  1  0.011930  0.291786  0.715377  1
  Li  Li2237  1  0.791786  0.488070  0.284623  1
  Li  Li2238  1  0.988070  0.708214  0.715377  1
  Li  Li2239  1  0.208214  0.511930  0.284623  1
  Li  Li2240  1  0.784623  0.511930  0.708214  1
  Li  Li2241  1  0.011930  0.715377  0.291786  1
  Li  Li2242  1  0.215377  0.488070  0.708214  1
  Li  Li2243  1  0.988070  0.284623  0.291786  1
  Li  Li2244  1  0.784623  0.488070  0.291786  1
  Li  Li2245  1  0.988070  0.715377  0.708214  1
  Li  Li2246  1  0.215377  0.511930  0.291786  1
  Li  Li2247  1  0.011930  0.284623  0.708214  1
  Li  Li2248  1  0.208214  0.284623  0.511930  1
  Li  Li2249  1  0.208214  0.715377  0.488070  1
  Li  Li2250  1  0.215377  0.291786  0.511930  1
  Li  Li2251  1  0.791786  0.284623  0.488070  1
  Li  Li2252  1  0.784623  0.708214  0.511930  1
  Li  Li2253  1  0.791786  0.715377  0.511930  1
  Li  Li2254  1  0.215377  0.708214  0.488070  1
  Li  Li2255  1  0.784623  0.291786  0.488070  1
  Li  Li2256  1  0.511930  0.208214  0.284623  1
  Li  Li2257  1  0.708214  0.988070  0.715377  1
  Li  Li2258  1  0.488070  0.791786  0.284623  1
  Li  Li2259  1  0.291786  0.011930  0.715377  1
  Li  Li2260  1  0.511930  0.791786  0.715377  1
  Li  Li2261  1  0.291786  0.988070  0.284623  1
  Li  Li2262  1  0.488070  0.208214  0.715377  1
  Li  Li2263  1  0.708214  0.011930  0.284623  1
  Li  Li2264  1  0.284623  0.011930  0.708214  1
  Li  Li2265  1  0.511930  0.215377  0.291786  1
  Li  Li2266  1  0.715377  0.988070  0.708214  1
  Li  Li2267  1  0.488070  0.784623  0.291786  1
  Li  Li2268  1  0.284623  0.988070  0.291786  1
  Li  Li2269  1  0.488070  0.215377  0.708214  1
  Li  Li2270  1  0.715377  0.011930  0.291786  1
  Li  Li2271  1  0.511930  0.784623  0.708214  1
  Li  Li2272  1  0.708214  0.784623  0.511930  1
  Li  Li2273  1  0.708214  0.215377  0.488070  1
  Li  Li2274  1  0.715377  0.791786  0.511930  1
  Li  Li2275  1  0.291786  0.784623  0.488070  1
  Li  Li2276  1  0.284623  0.208214  0.511930  1
  Li  Li2277  1  0.291786  0.215377  0.511930  1
  Li  Li2278  1  0.715377  0.208214  0.488070  1
  Li  Li2279  1  0.284623  0.791786  0.488070  1
  Li  Li2280  1  0.511930  0.708214  0.784623  1
  Li  Li2281  1  0.708214  0.488070  0.215377  1
  Li  Li2282  1  0.488070  0.291786  0.784623  1
  Li  Li2283  1  0.291786  0.511930  0.215377  1
  Li  Li2284  1  0.511930  0.291786  0.215377  1
  Li  Li2285  1  0.291786  0.488070  0.784623  1
  Li  Li2286  1  0.488070  0.708214  0.215377  1
  Li  Li2287  1  0.708214  0.511930  0.784623  1
  Li  Li2288  1  0.284623  0.511930  0.208214  1
  Li  Li2289  1  0.511930  0.715377  0.791786  1
  Li  Li2290  1  0.715377  0.488070  0.208214  1
  Li  Li2291  1  0.488070  0.284623  0.791786  1
  Li  Li2292  1  0.284623  0.488070  0.791786  1
  Li  Li2293  1  0.488070  0.715377  0.208214  1
  Li  Li2294  1  0.715377  0.511930  0.791786  1
  Li  Li2295  1  0.511930  0.284623  0.208214  1
  Li  Li2296  1  0.708214  0.284623  0.011930  1
  Li  Li2297  1  0.708214  0.715377  0.988070  1
  Li  Li2298  1  0.715377  0.291786  0.011930  1
  Li  Li2299  1  0.291786  0.284623  0.988070  1
  Li  Li2300  1  0.284623  0.708214  0.011930  1
  Li  Li2301  1  0.291786  0.715377  0.011930  1
  Li  Li2302  1  0.715377  0.708214  0.988070  1
  Li  Li2303  1  0.284623  0.291786  0.988070  1
  Li  Li2304  1  0.053651  0.212927  0.893967  1
  Li  Li2305  1  0.212927  0.946349  0.106033  1
  Li  Li2306  1  0.946349  0.787073  0.893967  1
  Li  Li2307  1  0.787073  0.053651  0.106033  1
  Li  Li2308  1  0.053651  0.787073  0.106033  1
  Li  Li2309  1  0.787073  0.946349  0.893967  1
  Li  Li2310  1  0.946349  0.212927  0.106033  1
  Li  Li2311  1  0.212927  0.053651  0.893967  1
  Li  Li2312  1  0.893967  0.053651  0.212927  1
  Li  Li2313  1  0.053651  0.106033  0.787073  1
  Li  Li2314  1  0.106033  0.946349  0.212927  1
  Li  Li2315  1  0.946349  0.893967  0.787073  1
  Li  Li2316  1  0.893967  0.946349  0.787073  1
  Li  Li2317  1  0.946349  0.106033  0.212927  1
  Li  Li2318  1  0.106033  0.053651  0.787073  1
  Li  Li2319  1  0.053651  0.893967  0.212927  1
  Li  Li2320  1  0.212927  0.893967  0.053651  1
  Li  Li2321  1  0.212927  0.106033  0.946349  1
  Li  Li2322  1  0.106033  0.787073  0.053651  1
  Li  Li2323  1  0.787073  0.893967  0.946349  1
  Li  Li2324  1  0.893967  0.212927  0.053651  1
  Li  Li2325  1  0.787073  0.106033  0.053651  1
  Li  Li2326  1  0.106033  0.212927  0.946349  1
  Li  Li2327  1  0.893967  0.787073  0.946349  1
  Li  Li2328  1  0.053651  0.712927  0.393967  1
  Li  Li2329  1  0.212927  0.446349  0.606033  1
  Li  Li2330  1  0.946349  0.287073  0.393967  1
  Li  Li2331  1  0.787073  0.553651  0.606033  1
  Li  Li2332  1  0.053651  0.287073  0.606033  1
  Li  Li2333  1  0.787073  0.446349  0.393967  1
  Li  Li2334  1  0.946349  0.712927  0.606033  1
  Li  Li2335  1  0.212927  0.553651  0.393967  1
  Li  Li2336  1  0.893967  0.553651  0.712927  1
  Li  Li2337  1  0.053651  0.606033  0.287073  1
  Li  Li2338  1  0.106033  0.446349  0.712927  1
  Li  Li2339  1  0.946349  0.393967  0.287073  1
  Li  Li2340  1  0.893967  0.446349  0.287073  1
  Li  Li2341  1  0.946349  0.606033  0.712927  1
  Li  Li2342  1  0.106033  0.553651  0.287073  1
  Li  Li2343  1  0.053651  0.393967  0.712927  1
  Li  Li2344  1  0.212927  0.393967  0.553651  1
  Li  Li2345  1  0.212927  0.606033  0.446349  1
  Li  Li2346  1  0.106033  0.287073  0.553651  1
  Li  Li2347  1  0.787073  0.393967  0.446349  1
  Li  Li2348  1  0.893967  0.712927  0.553651  1
  Li  Li2349  1  0.787073  0.606033  0.553651  1
  Li  Li2350  1  0.106033  0.712927  0.446349  1
  Li  Li2351  1  0.893967  0.287073  0.446349  1
  Li  Li2352  1  0.553651  0.212927  0.393967  1
  Li  Li2353  1  0.712927  0.946349  0.606033  1
  Li  Li2354  1  0.446349  0.787073  0.393967  1
  Li  Li2355  1  0.287073  0.053651  0.606033  1
  Li  Li2356  1  0.553651  0.787073  0.606033  1
  Li  Li2357  1  0.287073  0.946349  0.393967  1
  Li  Li2358  1  0.446349  0.212927  0.606033  1
  Li  Li2359  1  0.712927  0.053651  0.393967  1
  Li  Li2360  1  0.393967  0.053651  0.712927  1
  Li  Li2361  1  0.553651  0.106033  0.287073  1
  Li  Li2362  1  0.606033  0.946349  0.712927  1
  Li  Li2363  1  0.446349  0.893967  0.287073  1
  Li  Li2364  1  0.393967  0.946349  0.287073  1
  Li  Li2365  1  0.446349  0.106033  0.712927  1
  Li  Li2366  1  0.606033  0.053651  0.287073  1
  Li  Li2367  1  0.553651  0.893967  0.712927  1
  Li  Li2368  1  0.712927  0.893967  0.553651  1
  Li  Li2369  1  0.712927  0.106033  0.446349  1
  Li  Li2370  1  0.606033  0.787073  0.553651  1
  Li  Li2371  1  0.287073  0.893967  0.446349  1
  Li  Li2372  1  0.393967  0.212927  0.553651  1
  Li  Li2373  1  0.287073  0.106033  0.553651  1
  Li  Li2374  1  0.606033  0.212927  0.446349  1
  Li  Li2375  1  0.393967  0.787073  0.446349  1
  Li  Li2376  1  0.553651  0.712927  0.893967  1
  Li  Li2377  1  0.712927  0.446349  0.106033  1
  Li  Li2378  1  0.446349  0.287073  0.893967  1
  Li  Li2379  1  0.287073  0.553651  0.106033  1
  Li  Li2380  1  0.553651  0.287073  0.106033  1
  Li  Li2381  1  0.287073  0.446349  0.893967  1
  Li  Li2382  1  0.446349  0.712927  0.106033  1
  Li  Li2383  1  0.712927  0.553651  0.893967  1
  Li  Li2384  1  0.393967  0.553651  0.212927  1
  Li  Li2385  1  0.553651  0.606033  0.787073  1
  Li  Li2386  1  0.606033  0.446349  0.212927  1
  Li  Li2387  1  0.446349  0.393967  0.787073  1
  Li  Li2388  1  0.393967  0.446349  0.787073  1
  Li  Li2389  1  0.446349  0.606033  0.212927  1
  Li  Li2390  1  0.606033  0.553651  0.787073  1
  Li  Li2391  1  0.553651  0.393967  0.212927  1
  Li  Li2392  1  0.712927  0.393967  0.053651  1
  Li  Li2393  1  0.712927  0.606033  0.946349  1
  Li  Li2394  1  0.606033  0.287073  0.053651  1
  Li  Li2395  1  0.287073  0.393967  0.946349  1
  Li  Li2396  1  0.393967  0.712927  0.053651  1
  Li  Li2397  1  0.287073  0.606033  0.053651  1
  Li  Li2398  1  0.606033  0.712927  0.946349  1
  Li  Li2399  1  0.393967  0.287073  0.946349  1
  Li  Li2400  1  0.237688  0.477944  0.762085  1
  Li  Li2401  1  0.477944  0.762312  0.237915  1
  Li  Li2402  1  0.762312  0.522056  0.762085  1
  Li  Li2403  1  0.522056  0.237688  0.237915  1
  Li  Li2404  1  0.237688  0.522056  0.237915  1
  Li  Li2405  1  0.522056  0.762312  0.762085  1
  Li  Li2406  1  0.762312  0.477944  0.237915  1
  Li  Li2407  1  0.477944  0.237688  0.762085  1
  Li  Li2408  1  0.762085  0.237688  0.477944  1
  Li  Li2409  1  0.237688  0.237915  0.522056  1
  Li  Li2410  1  0.237915  0.762312  0.477944  1
  Li  Li2411  1  0.762312  0.762085  0.522056  1
  Li  Li2412  1  0.762085  0.762312  0.522056  1
  Li  Li2413  1  0.762312  0.237915  0.477944  1
  Li  Li2414  1  0.237915  0.237688  0.522056  1
  Li  Li2415  1  0.237688  0.762085  0.477944  1
  Li  Li2416  1  0.477944  0.762085  0.237688  1
  Li  Li2417  1  0.477944  0.237915  0.762312  1
  Li  Li2418  1  0.237915  0.522056  0.237688  1
  Li  Li2419  1  0.522056  0.762085  0.762312  1
  Li  Li2420  1  0.762085  0.477944  0.237688  1
  Li  Li2421  1  0.522056  0.237915  0.237688  1
  Li  Li2422  1  0.237915  0.477944  0.762312  1
  Li  Li2423  1  0.762085  0.522056  0.762312  1
  Li  Li2424  1  0.237688  0.977944  0.262085  1
  Li  Li2425  1  0.477944  0.262312  0.737915  1
  Li  Li2426  1  0.762312  0.022056  0.262085  1
  Li  Li2427  1  0.522056  0.737688  0.737915  1
  Li  Li2428  1  0.237688  0.022056  0.737915  1
  Li  Li2429  1  0.522056  0.262312  0.262085  1
  Li  Li2430  1  0.762312  0.977944  0.737915  1
  Li  Li2431  1  0.477944  0.737688  0.262085  1
  Li  Li2432  1  0.762085  0.737688  0.977944  1
  Li  Li2433  1  0.237688  0.737915  0.022056  1
  Li  Li2434  1  0.237915  0.262312  0.977944  1
  Li  Li2435  1  0.762312  0.262085  0.022056  1
  Li  Li2436  1  0.762085  0.262312  0.022056  1
  Li  Li2437  1  0.762312  0.737915  0.977944  1
  Li  Li2438  1  0.237915  0.737688  0.022056  1
  Li  Li2439  1  0.237688  0.262085  0.977944  1
  Li  Li2440  1  0.477944  0.262085  0.737688  1
  Li  Li2441  1  0.477944  0.737915  0.262312  1
  Li  Li2442  1  0.237915  0.022056  0.737688  1
  Li  Li2443  1  0.522056  0.262085  0.262312  1
  Li  Li2444  1  0.762085  0.977944  0.737688  1
  Li  Li2445  1  0.522056  0.737915  0.737688  1
  Li  Li2446  1  0.237915  0.977944  0.262312  1
  Li  Li2447  1  0.762085  0.022056  0.262312  1
  Li  Li2448  1  0.737688  0.477944  0.262085  1
  Li  Li2449  1  0.977944  0.762312  0.737915  1
  Li  Li2450  1  0.262312  0.522056  0.262085  1
  Li  Li2451  1  0.022056  0.237688  0.737915  1
  Li  Li2452  1  0.737688  0.522056  0.737915  1
  Li  Li2453  1  0.022056  0.762312  0.262085  1
  Li  Li2454  1  0.262312  0.477944  0.737915  1
  Li  Li2455  1  0.977944  0.237688  0.262085  1
  Li  Li2456  1  0.262085  0.237688  0.977944  1
  Li  Li2457  1  0.737688  0.237915  0.022056  1
  Li  Li2458  1  0.737915  0.762312  0.977944  1
  Li  Li2459  1  0.262312  0.762085  0.022056  1
  Li  Li2460  1  0.262085  0.762312  0.022056  1
  Li  Li2461  1  0.262312  0.237915  0.977944  1
  Li  Li2462  1  0.737915  0.237688  0.022056  1
  Li  Li2463  1  0.737688  0.762085  0.977944  1
  Li  Li2464  1  0.977944  0.762085  0.737688  1
  Li  Li2465  1  0.977944  0.237915  0.262312  1
  Li  Li2466  1  0.737915  0.522056  0.737688  1
  Li  Li2467  1  0.022056  0.762085  0.262312  1
  Li  Li2468  1  0.262085  0.477944  0.737688  1
  Li  Li2469  1  0.022056  0.237915  0.737688  1
  Li  Li2470  1  0.737915  0.477944  0.262312  1
  Li  Li2471  1  0.262085  0.522056  0.262312  1
  Li  Li2472  1  0.737688  0.977944  0.762085  1
  Li  Li2473  1  0.977944  0.262312  0.237915  1
  Li  Li2474  1  0.262312  0.022056  0.762085  1
  Li  Li2475  1  0.022056  0.737688  0.237915  1
  Li  Li2476  1  0.737688  0.022056  0.237915  1
  Li  Li2477  1  0.022056  0.262312  0.762085  1
  Li  Li2478  1  0.262312  0.977944  0.237915  1
  Li  Li2479  1  0.977944  0.737688  0.762085  1
  Li  Li2480  1  0.262085  0.737688  0.477944  1
  Li  Li2481  1  0.737688  0.737915  0.522056  1
  Li  Li2482  1  0.737915  0.262312  0.477944  1
  Li  Li2483  1  0.262312  0.262085  0.522056  1
  Li  Li2484  1  0.262085  0.262312  0.522056  1
  Li  Li2485  1  0.262312  0.737915  0.477944  1
  Li  Li2486  1  0.737915  0.737688  0.522056  1
  Li  Li2487  1  0.737688  0.262085  0.477944  1
  Li  Li2488  1  0.977944  0.262085  0.237688  1
  Li  Li2489  1  0.977944  0.737915  0.762312  1
  Li  Li2490  1  0.737915  0.022056  0.237688  1
  Li  Li2491  1  0.022056  0.262085  0.762312  1
  Li  Li2492  1  0.262085  0.977944  0.237688  1
  Li  Li2493  1  0.022056  0.737915  0.237688  1
  Li  Li2494  1  0.737915  0.977944  0.762312  1
  Li  Li2495  1  0.262085  0.022056  0.762312  1
  Li  Li2496  1  0.010031  0.279863  0.749551  1
  Li  Li2497  1  0.279863  0.989969  0.250449  1
  Li  Li2498  1  0.989969  0.720137  0.749551  1
  Li  Li2499  1  0.720137  0.010031  0.250449  1
  Li  Li2500  1  0.010031  0.720137  0.250449  1
  Li  Li2501  1  0.720137  0.989969  0.749551  1
  Li  Li2502  1  0.989969  0.279863  0.250449  1
  Li  Li2503  1  0.279863  0.010031  0.749551  1
  Li  Li2504  1  0.749551  0.010031  0.279863  1
  Li  Li2505  1  0.010031  0.250449  0.720137  1
  Li  Li2506  1  0.250449  0.989969  0.279863  1
  Li  Li2507  1  0.989969  0.749551  0.720137  1
  Li  Li2508  1  0.749551  0.989969  0.720137  1
  Li  Li2509  1  0.989969  0.250449  0.279863  1
  Li  Li2510  1  0.250449  0.010031  0.720137  1
  Li  Li2511  1  0.010031  0.749551  0.279863  1
  Li  Li2512  1  0.279863  0.749551  0.010031  1
  Li  Li2513  1  0.279863  0.250449  0.989969  1
  Li  Li2514  1  0.250449  0.720137  0.010031  1
  Li  Li2515  1  0.720137  0.749551  0.989969  1
  Li  Li2516  1  0.749551  0.279863  0.010031  1
  Li  Li2517  1  0.720137  0.250449  0.010031  1
  Li  Li2518  1  0.250449  0.279863  0.989969  1
  Li  Li2519  1  0.749551  0.720137  0.989969  1
  Li  Li2520  1  0.010031  0.779863  0.249551  1
  Li  Li2521  1  0.279863  0.489969  0.750449  1
  Li  Li2522  1  0.989969  0.220137  0.249551  1
  Li  Li2523  1  0.720137  0.510031  0.750449  1
  Li  Li2524  1  0.010031  0.220137  0.750449  1
  Li  Li2525  1  0.720137  0.489969  0.249551  1
  Li  Li2526  1  0.989969  0.779863  0.750449  1
  Li  Li2527  1  0.279863  0.510031  0.249551  1
  Li  Li2528  1  0.749551  0.510031  0.779863  1
  Li  Li2529  1  0.010031  0.750449  0.220137  1
  Li  Li2530  1  0.250449  0.489969  0.779863  1
  Li  Li2531  1  0.989969  0.249551  0.220137  1
  Li  Li2532  1  0.749551  0.489969  0.220137  1
  Li  Li2533  1  0.989969  0.750449  0.779863  1
  Li  Li2534  1  0.250449  0.510031  0.220137  1
  Li  Li2535  1  0.010031  0.249551  0.779863  1
  Li  Li2536  1  0.279863  0.249551  0.510031  1
  Li  Li2537  1  0.279863  0.750449  0.489969  1
  Li  Li2538  1  0.250449  0.220137  0.510031  1
  Li  Li2539  1  0.720137  0.249551  0.489969  1
  Li  Li2540  1  0.749551  0.779863  0.510031  1
  Li  Li2541  1  0.720137  0.750449  0.510031  1
  Li  Li2542  1  0.250449  0.779863  0.489969  1
  Li  Li2543  1  0.749551  0.220137  0.489969  1
  Li  Li2544  1  0.510031  0.279863  0.249551  1
  Li  Li2545  1  0.779863  0.989969  0.750449  1
  Li  Li2546  1  0.489969  0.720137  0.249551  1
  Li  Li2547  1  0.220137  0.010031  0.750449  1
  Li  Li2548  1  0.510031  0.720137  0.750449  1
  Li  Li2549  1  0.220137  0.989969  0.249551  1
  Li  Li2550  1  0.489969  0.279863  0.750449  1
  Li  Li2551  1  0.779863  0.010031  0.249551  1
  Li  Li2552  1  0.249551  0.010031  0.779863  1
  Li  Li2553  1  0.510031  0.250449  0.220137  1
  Li  Li2554  1  0.750449  0.989969  0.779863  1
  Li  Li2555  1  0.489969  0.749551  0.220137  1
  Li  Li2556  1  0.249551  0.989969  0.220137  1
  Li  Li2557  1  0.489969  0.250449  0.779863  1
  Li  Li2558  1  0.750449  0.010031  0.220137  1
  Li  Li2559  1  0.510031  0.749551  0.779863  1
  Li  Li2560  1  0.779863  0.749551  0.510031  1
  Li  Li2561  1  0.779863  0.250449  0.489969  1
  Li  Li2562  1  0.750449  0.720137  0.510031  1
  Li  Li2563  1  0.220137  0.749551  0.489969  1
  Li  Li2564  1  0.249551  0.279863  0.510031  1
  Li  Li2565  1  0.220137  0.250449  0.510031  1
  Li  Li2566  1  0.750449  0.279863  0.489969  1
  Li  Li2567  1  0.249551  0.720137  0.489969  1
  Li  Li2568  1  0.510031  0.779863  0.749551  1
  Li  Li2569  1  0.779863  0.489969  0.250449  1
  Li  Li2570  1  0.489969  0.220137  0.749551  1
  Li  Li2571  1  0.220137  0.510031  0.250449  1
  Li  Li2572  1  0.510031  0.220137  0.250449  1
  Li  Li2573  1  0.220137  0.489969  0.749551  1
  Li  Li2574  1  0.489969  0.779863  0.250449  1
  Li  Li2575  1  0.779863  0.510031  0.749551  1
  Li  Li2576  1  0.249551  0.510031  0.279863  1
  Li  Li2577  1  0.510031  0.750449  0.720137  1
  Li  Li2578  1  0.750449  0.489969  0.279863  1
  Li  Li2579  1  0.489969  0.249551  0.720137  1
  Li  Li2580  1  0.249551  0.489969  0.720137  1
  Li  Li2581  1  0.489969  0.750449  0.279863  1
  Li  Li2582  1  0.750449  0.510031  0.720137  1
  Li  Li2583  1  0.510031  0.249551  0.279863  1
  Li  Li2584  1  0.779863  0.249551  0.010031  1
  Li  Li2585  1  0.779863  0.750449  0.989969  1
  Li  Li2586  1  0.750449  0.220137  0.010031  1
  Li  Li2587  1  0.220137  0.249551  0.989969  1
  Li  Li2588  1  0.249551  0.779863  0.010031  1
  Li  Li2589  1  0.220137  0.750449  0.010031  1
  Li  Li2590  1  0.750449  0.779863  0.989969  1
  Li  Li2591  1  0.249551  0.220137  0.989969  1
  Li  Li2592  1  0.334940  0.328383  0.961817  1
  Li  Li2593  1  0.328383  0.665060  0.038183  1
  Li  Li2594  1  0.665060  0.671617  0.961817  1
  Li  Li2595  1  0.671617  0.334940  0.038183  1
  Li  Li2596  1  0.334940  0.671617  0.038183  1
  Li  Li2597  1  0.671617  0.665060  0.961817  1
  Li  Li2598  1  0.665060  0.328383  0.038183  1
  Li  Li2599  1  0.328383  0.334940  0.961817  1
  Li  Li2600  1  0.961817  0.334940  0.328383  1
  Li  Li2601  1  0.334940  0.038183  0.671617  1
  Li  Li2602  1  0.038183  0.665060  0.328383  1
  Li  Li2603  1  0.665060  0.961817  0.671617  1
  Li  Li2604  1  0.961817  0.665060  0.671617  1
  Li  Li2605  1  0.665060  0.038183  0.328383  1
  Li  Li2606  1  0.038183  0.334940  0.671617  1
  Li  Li2607  1  0.334940  0.961817  0.328383  1
  Li  Li2608  1  0.328383  0.961817  0.334940  1
  Li  Li2609  1  0.328383  0.038183  0.665060  1
  Li  Li2610  1  0.038183  0.671617  0.334940  1
  Li  Li2611  1  0.671617  0.961817  0.665060  1
  Li  Li2612  1  0.961817  0.328383  0.334940  1
  Li  Li2613  1  0.671617  0.038183  0.334940  1
  Li  Li2614  1  0.038183  0.328383  0.665060  1
  Li  Li2615  1  0.961817  0.671617  0.665060  1
  Li  Li2616  1  0.334940  0.828383  0.461817  1
  Li  Li2617  1  0.328383  0.165060  0.538183  1
  Li  Li2618  1  0.665060  0.171617  0.461817  1
  Li  Li2619  1  0.671617  0.834940  0.538183  1
  Li  Li2620  1  0.334940  0.171617  0.538183  1
  Li  Li2621  1  0.671617  0.165060  0.461817  1
  Li  Li2622  1  0.665060  0.828383  0.538183  1
  Li  Li2623  1  0.328383  0.834940  0.461817  1
  Li  Li2624  1  0.961817  0.834940  0.828383  1
  Li  Li2625  1  0.334940  0.538183  0.171617  1
  Li  Li2626  1  0.038183  0.165060  0.828383  1
  Li  Li2627  1  0.665060  0.461817  0.171617  1
  Li  Li2628  1  0.961817  0.165060  0.171617  1
  Li  Li2629  1  0.665060  0.538183  0.828383  1
  Li  Li2630  1  0.038183  0.834940  0.171617  1
  Li  Li2631  1  0.334940  0.461817  0.828383  1
  Li  Li2632  1  0.328383  0.461817  0.834940  1
  Li  Li2633  1  0.328383  0.538183  0.165060  1
  Li  Li2634  1  0.038183  0.171617  0.834940  1
  Li  Li2635  1  0.671617  0.461817  0.165060  1
  Li  Li2636  1  0.961817  0.828383  0.834940  1
  Li  Li2637  1  0.671617  0.538183  0.834940  1
  Li  Li2638  1  0.038183  0.828383  0.165060  1
  Li  Li2639  1  0.961817  0.171617  0.165060  1
  Li  Li2640  1  0.834940  0.328383  0.461817  1
  Li  Li2641  1  0.828383  0.665060  0.538183  1
  Li  Li2642  1  0.165060  0.671617  0.461817  1
  Li  Li2643  1  0.171617  0.334940  0.538183  1
  Li  Li2644  1  0.834940  0.671617  0.538183  1
  Li  Li2645  1  0.171617  0.665060  0.461817  1
  Li  Li2646  1  0.165060  0.328383  0.538183  1
  Li  Li2647  1  0.828383  0.334940  0.461817  1
  Li  Li2648  1  0.461817  0.334940  0.828383  1
  Li  Li2649  1  0.834940  0.038183  0.171617  1
  Li  Li2650  1  0.538183  0.665060  0.828383  1
  Li  Li2651  1  0.165060  0.961817  0.171617  1
  Li  Li2652  1  0.461817  0.665060  0.171617  1
  Li  Li2653  1  0.165060  0.038183  0.828383  1
  Li  Li2654  1  0.538183  0.334940  0.171617  1
  Li  Li2655  1  0.834940  0.961817  0.828383  1
  Li  Li2656  1  0.828383  0.961817  0.834940  1
  Li  Li2657  1  0.828383  0.038183  0.165060  1
  Li  Li2658  1  0.538183  0.671617  0.834940  1
  Li  Li2659  1  0.171617  0.961817  0.165060  1
  Li  Li2660  1  0.461817  0.328383  0.834940  1
  Li  Li2661  1  0.171617  0.038183  0.834940  1
  Li  Li2662  1  0.538183  0.328383  0.165060  1
  Li  Li2663  1  0.461817  0.671617  0.165060  1
  Li  Li2664  1  0.834940  0.828383  0.961817  1
  Li  Li2665  1  0.828383  0.165060  0.038183  1
  Li  Li2666  1  0.165060  0.171617  0.961817  1
  Li  Li2667  1  0.171617  0.834940  0.038183  1
  Li  Li2668  1  0.834940  0.171617  0.038183  1
  Li  Li2669  1  0.171617  0.165060  0.961817  1
  Li  Li2670  1  0.165060  0.828383  0.038183  1
  Li  Li2671  1  0.828383  0.834940  0.961817  1
  Li  Li2672  1  0.461817  0.834940  0.328383  1
  Li  Li2673  1  0.834940  0.538183  0.671617  1
  Li  Li2674  1  0.538183  0.165060  0.328383  1
  Li  Li2675  1  0.165060  0.461817  0.671617  1
  Li  Li2676  1  0.461817  0.165060  0.671617  1
  Li  Li2677  1  0.165060  0.538183  0.328383  1
  Li  Li2678  1  0.538183  0.834940  0.671617  1
  Li  Li2679  1  0.834940  0.461817  0.328383  1
  Li  Li2680  1  0.828383  0.461817  0.334940  1
  Li  Li2681  1  0.828383  0.538183  0.665060  1
  Li  Li2682  1  0.538183  0.171617  0.334940  1
  Li  Li2683  1  0.171617  0.461817  0.665060  1
  Li  Li2684  1  0.461817  0.828383  0.334940  1
  Li  Li2685  1  0.171617  0.538183  0.334940  1
  Li  Li2686  1  0.538183  0.828383  0.665060  1
  Li  Li2687  1  0.461817  0.171617  0.665060  1
  Li  Li2688  1  0.219049  0.259011  0.543433  1
  Li  Li2689  1  0.259011  0.780951  0.456567  1
  Li  Li2690  1  0.780951  0.740989  0.543433  1
  Li  Li2691  1  0.740989  0.219049  0.456567  1
  Li  Li2692  1  0.219049  0.740989  0.456567  1
  Li  Li2693  1  0.740989  0.780951  0.543433  1
  Li  Li2694  1  0.780951  0.259011  0.456567  1
  Li  Li2695  1  0.259011  0.219049  0.543433  1
  Li  Li2696  1  0.543433  0.219049  0.259011  1
  Li  Li2697  1  0.219049  0.456567  0.740989  1
  Li  Li2698  1  0.456567  0.780951  0.259011  1
  Li  Li2699  1  0.780951  0.543433  0.740989  1
  Li  Li2700  1  0.543433  0.780951  0.740989  1
  Li  Li2701  1  0.780951  0.456567  0.259011  1
  Li  Li2702  1  0.456567  0.219049  0.740989  1
  Li  Li2703  1  0.219049  0.543433  0.259011  1
  Li  Li2704  1  0.259011  0.543433  0.219049  1
  Li  Li2705  1  0.259011  0.456567  0.780951  1
  Li  Li2706  1  0.456567  0.740989  0.219049  1
  Li  Li2707  1  0.740989  0.543433  0.780951  1
  Li  Li2708  1  0.543433  0.259011  0.219049  1
  Li  Li2709  1  0.740989  0.456567  0.219049  1
  Li  Li2710  1  0.456567  0.259011  0.780951  1
  Li  Li2711  1  0.543433  0.740989  0.780951  1
  Li  Li2712  1  0.219049  0.759011  0.043433  1
  Li  Li2713  1  0.259011  0.280951  0.956567  1
  Li  Li2714  1  0.780951  0.240989  0.043433  1
  Li  Li2715  1  0.740989  0.719049  0.956567  1
  Li  Li2716  1  0.219049  0.240989  0.956567  1
  Li  Li2717  1  0.740989  0.280951  0.043433  1
  Li  Li2718  1  0.780951  0.759011  0.956567  1
  Li  Li2719  1  0.259011  0.719049  0.043433  1
  Li  Li2720  1  0.543433  0.719049  0.759011  1
  Li  Li2721  1  0.219049  0.956567  0.240989  1
  Li  Li2722  1  0.456567  0.280951  0.759011  1
  Li  Li2723  1  0.780951  0.043433  0.240989  1
  Li  Li2724  1  0.543433  0.280951  0.240989  1
  Li  Li2725  1  0.780951  0.956567  0.759011  1
  Li  Li2726  1  0.456567  0.719049  0.240989  1
  Li  Li2727  1  0.219049  0.043433  0.759011  1
  Li  Li2728  1  0.259011  0.043433  0.719049  1
  Li  Li2729  1  0.259011  0.956567  0.280951  1
  Li  Li2730  1  0.456567  0.240989  0.719049  1
  Li  Li2731  1  0.740989  0.043433  0.280951  1
  Li  Li2732  1  0.543433  0.759011  0.719049  1
  Li  Li2733  1  0.740989  0.956567  0.719049  1
  Li  Li2734  1  0.456567  0.759011  0.280951  1
  Li  Li2735  1  0.543433  0.240989  0.280951  1
  Li  Li2736  1  0.719049  0.259011  0.043433  1
  Li  Li2737  1  0.759011  0.780951  0.956567  1
  Li  Li2738  1  0.280951  0.740989  0.043433  1
  Li  Li2739  1  0.240989  0.219049  0.956567  1
  Li  Li2740  1  0.719049  0.740989  0.956567  1
  Li  Li2741  1  0.240989  0.780951  0.043433  1
  Li  Li2742  1  0.280951  0.259011  0.956567  1
  Li  Li2743  1  0.759011  0.219049  0.043433  1
  Li  Li2744  1  0.043433  0.219049  0.759011  1
  Li  Li2745  1  0.719049  0.456567  0.240989  1
  Li  Li2746  1  0.956567  0.780951  0.759011  1
  Li  Li2747  1  0.280951  0.543433  0.240989  1
  Li  Li2748  1  0.043433  0.780951  0.240989  1
  Li  Li2749  1  0.280951  0.456567  0.759011  1
  Li  Li2750  1  0.956567  0.219049  0.240989  1
  Li  Li2751  1  0.719049  0.543433  0.759011  1
  Li  Li2752  1  0.759011  0.543433  0.719049  1
  Li  Li2753  1  0.759011  0.456567  0.280951  1
  Li  Li2754  1  0.956567  0.740989  0.719049  1
  Li  Li2755  1  0.240989  0.543433  0.280951  1
  Li  Li2756  1  0.043433  0.259011  0.719049  1
  Li  Li2757  1  0.240989  0.456567  0.719049  1
  Li  Li2758  1  0.956567  0.259011  0.280951  1
  Li  Li2759  1  0.043433  0.740989  0.280951  1
  Li  Li2760  1  0.719049  0.759011  0.543433  1
  Li  Li2761  1  0.759011  0.280951  0.456567  1
  Li  Li2762  1  0.280951  0.240989  0.543433  1
  Li  Li2763  1  0.240989  0.719049  0.456567  1
  Li  Li2764  1  0.719049  0.240989  0.456567  1
  Li  Li2765  1  0.240989  0.280951  0.543433  1
  Li  Li2766  1  0.280951  0.759011  0.456567  1
  Li  Li2767  1  0.759011  0.719049  0.543433  1
  Li  Li2768  1  0.043433  0.719049  0.259011  1
  Li  Li2769  1  0.719049  0.956567  0.740989  1
  Li  Li2770  1  0.956567  0.280951  0.259011  1
  Li  Li2771  1  0.280951  0.043433  0.740989  1
  Li  Li2772  1  0.043433  0.280951  0.740989  1
  Li  Li2773  1  0.280951  0.956567  0.259011  1
  Li  Li2774  1  0.956567  0.719049  0.740989  1
  Li  Li2775  1  0.719049  0.043433  0.259011  1
  Li  Li2776  1  0.759011  0.043433  0.219049  1
  Li  Li2777  1  0.759011  0.956567  0.780951  1
  Li  Li2778  1  0.956567  0.240989  0.219049  1
  Li  Li2779  1  0.240989  0.043433  0.780951  1
  Li  Li2780  1  0.043433  0.759011  0.219049  1
  Li  Li2781  1  0.240989  0.956567  0.219049  1
  Li  Li2782  1  0.956567  0.759011  0.780951  1
  Li  Li2783  1  0.043433  0.240989  0.780951  1
  Li  Li2784  1  0.286259  0.020522  0.708454  1
  Li  Li2785  1  0.020522  0.713741  0.291546  1
  Li  Li2786  1  0.713741  0.979478  0.708454  1
  Li  Li2787  1  0.979478  0.286259  0.291546  1
  Li  Li2788  1  0.286259  0.979478  0.291546  1
  Li  Li2789  1  0.979478  0.713741  0.708454  1
  Li  Li2790  1  0.713741  0.020522  0.291546  1
  Li  Li2791  1  0.020522  0.286259  0.708454  1
  Li  Li2792  1  0.708454  0.286259  0.020522  1
  Li  Li2793  1  0.286259  0.291546  0.979478  1
  Li  Li2794  1  0.291546  0.713741  0.020522  1
  Li  Li2795  1  0.713741  0.708454  0.979478  1
  Li  Li2796  1  0.708454  0.713741  0.979478  1
  Li  Li2797  1  0.713741  0.291546  0.020522  1
  Li  Li2798  1  0.291546  0.286259  0.979478  1
  Li  Li2799  1  0.286259  0.708454  0.020522  1
  Li  Li2800  1  0.020522  0.708454  0.286259  1
  Li  Li2801  1  0.020522  0.291546  0.713741  1
  Li  Li2802  1  0.291546  0.979478  0.286259  1
  Li  Li2803  1  0.979478  0.708454  0.713741  1
  Li  Li2804  1  0.708454  0.020522  0.286259  1
  Li  Li2805  1  0.979478  0.291546  0.286259  1
  Li  Li2806  1  0.291546  0.020522  0.713741  1
  Li  Li2807  1  0.708454  0.979478  0.713741  1
  Li  Li2808  1  0.286259  0.520522  0.208454  1
  Li  Li2809  1  0.020522  0.213741  0.791546  1
  Li  Li2810  1  0.713741  0.479478  0.208454  1
  Li  Li2811  1  0.979478  0.786259  0.791546  1
  Li  Li2812  1  0.286259  0.479478  0.791546  1
  Li  Li2813  1  0.979478  0.213741  0.208454  1
  Li  Li2814  1  0.713741  0.520522  0.791546  1
  Li  Li2815  1  0.020522  0.786259  0.208454  1
  Li  Li2816  1  0.708454  0.786259  0.520522  1
  Li  Li2817  1  0.286259  0.791546  0.479478  1
  Li  Li2818  1  0.291546  0.213741  0.520522  1
  Li  Li2819  1  0.713741  0.208454  0.479478  1
  Li  Li2820  1  0.708454  0.213741  0.479478  1
  Li  Li2821  1  0.713741  0.791546  0.520522  1
  Li  Li2822  1  0.291546  0.786259  0.479478  1
  Li  Li2823  1  0.286259  0.208454  0.520522  1
  Li  Li2824  1  0.020522  0.208454  0.786259  1
  Li  Li2825  1  0.020522  0.791546  0.213741  1
  Li  Li2826  1  0.291546  0.479478  0.786259  1
  Li  Li2827  1  0.979478  0.208454  0.213741  1
  Li  Li2828  1  0.708454  0.520522  0.786259  1
  Li  Li2829  1  0.979478  0.791546  0.786259  1
  Li  Li2830  1  0.291546  0.520522  0.213741  1
  Li  Li2831  1  0.708454  0.479478  0.213741  1
  Li  Li2832  1  0.786259  0.020522  0.208454  1
  Li  Li2833  1  0.520522  0.713741  0.791546  1
  Li  Li2834  1  0.213741  0.979478  0.208454  1
  Li  Li2835  1  0.479478  0.286259  0.791546  1
  Li  Li2836  1  0.786259  0.979478  0.791546  1
  Li  Li2837  1  0.479478  0.713741  0.208454  1
  Li  Li2838  1  0.213741  0.020522  0.791546  1
  Li  Li2839  1  0.520522  0.286259  0.208454  1
  Li  Li2840  1  0.208454  0.286259  0.520522  1
  Li  Li2841  1  0.786259  0.291546  0.479478  1
  Li  Li2842  1  0.791546  0.713741  0.520522  1
  Li  Li2843  1  0.213741  0.708454  0.479478  1
  Li  Li2844  1  0.208454  0.713741  0.479478  1
  Li  Li2845  1  0.213741  0.291546  0.520522  1
  Li  Li2846  1  0.791546  0.286259  0.479478  1
  Li  Li2847  1  0.786259  0.708454  0.520522  1
  Li  Li2848  1  0.520522  0.708454  0.786259  1
  Li  Li2849  1  0.520522  0.291546  0.213741  1
  Li  Li2850  1  0.791546  0.979478  0.786259  1
  Li  Li2851  1  0.479478  0.708454  0.213741  1
  Li  Li2852  1  0.208454  0.020522  0.786259  1
  Li  Li2853  1  0.479478  0.291546  0.786259  1
  Li  Li2854  1  0.791546  0.020522  0.213741  1
  Li  Li2855  1  0.208454  0.979478  0.213741  1
  Li  Li2856  1  0.786259  0.520522  0.708454  1
  Li  Li2857  1  0.520522  0.213741  0.291546  1
  Li  Li2858  1  0.213741  0.479478  0.708454  1
  Li  Li2859  1  0.479478  0.786259  0.291546  1
  Li  Li2860  1  0.786259  0.479478  0.291546  1
  Li  Li2861  1  0.479478  0.213741  0.708454  1
  Li  Li2862  1  0.213741  0.520522  0.291546  1
  Li  Li2863  1  0.520522  0.786259  0.708454  1
  Li  Li2864  1  0.208454  0.786259  0.020522  1
  Li  Li2865  1  0.786259  0.791546  0.979478  1
  Li  Li2866  1  0.791546  0.213741  0.020522  1
  Li  Li2867  1  0.213741  0.208454  0.979478  1
  Li  Li2868  1  0.208454  0.213741  0.979478  1
  Li  Li2869  1  0.213741  0.791546  0.020522  1
  Li  Li2870  1  0.791546  0.786259  0.979478  1
  Li  Li2871  1  0.786259  0.208454  0.020522  1
  Li  Li2872  1  0.520522  0.208454  0.286259  1
  Li  Li2873  1  0.520522  0.791546  0.713741  1
  Li  Li2874  1  0.791546  0.479478  0.286259  1
  Li  Li2875  1  0.479478  0.208454  0.713741  1
  Li  Li2876  1  0.208454  0.520522  0.286259  1
  Li  Li2877  1  0.479478  0.791546  0.286259  1
  Li  Li2878  1  0.791546  0.520522  0.713741  1
  Li  Li2879  1  0.208454  0.479478  0.713741  1
  Li  Li2880  1  0.021039  0.261298  0.767201  1
  Li  Li2881  1  0.261298  0.978961  0.232799  1
  Li  Li2882  1  0.978961  0.738702  0.767201  1
  Li  Li2883  1  0.738702  0.021039  0.232799  1
  Li  Li2884  1  0.021039  0.738702  0.232799  1
  Li  Li2885  1  0.738702  0.978961  0.767201  1
  Li  Li2886  1  0.978961  0.261298  0.232799  1
  Li  Li2887  1  0.261298  0.021039  0.767201  1
  Li  Li2888  1  0.767201  0.021039  0.261298  1
  Li  Li2889  1  0.021039  0.232799  0.738702  1
  Li  Li2890  1  0.232799  0.978961  0.261298  1
  Li  Li2891  1  0.978961  0.767201  0.738702  1
  Li  Li2892  1  0.767201  0.978961  0.738702  1
  Li  Li2893  1  0.978961  0.232799  0.261298  1
  Li  Li2894  1  0.232799  0.021039  0.738702  1
  Li  Li2895  1  0.021039  0.767201  0.261298  1
  Li  Li2896  1  0.261298  0.767201  0.021039  1
  Li  Li2897  1  0.261298  0.232799  0.978961  1
  Li  Li2898  1  0.232799  0.738702  0.021039  1
  Li  Li2899  1  0.738702  0.767201  0.978961  1
  Li  Li2900  1  0.767201  0.261298  0.021039  1
  Li  Li2901  1  0.738702  0.232799  0.021039  1
  Li  Li2902  1  0.232799  0.261298  0.978961  1
  Li  Li2903  1  0.767201  0.738702  0.978961  1
  Li  Li2904  1  0.021039  0.761298  0.267201  1
  Li  Li2905  1  0.261298  0.478961  0.732799  1
  Li  Li2906  1  0.978961  0.238702  0.267201  1
  Li  Li2907  1  0.738702  0.521039  0.732799  1
  Li  Li2908  1  0.021039  0.238702  0.732799  1
  Li  Li2909  1  0.738702  0.478961  0.267201  1
  Li  Li2910  1  0.978961  0.761298  0.732799  1
  Li  Li2911  1  0.261298  0.521039  0.267201  1
  Li  Li2912  1  0.767201  0.521039  0.761298  1
  Li  Li2913  1  0.021039  0.732799  0.238702  1
  Li  Li2914  1  0.232799  0.478961  0.761298  1
  Li  Li2915  1  0.978961  0.267201  0.238702  1
  Li  Li2916  1  0.767201  0.478961  0.238702  1
  Li  Li2917  1  0.978961  0.732799  0.761298  1
  Li  Li2918  1  0.232799  0.521039  0.238702  1
  Li  Li2919  1  0.021039  0.267201  0.761298  1
  Li  Li2920  1  0.261298  0.267201  0.521039  1
  Li  Li2921  1  0.261298  0.732799  0.478961  1
  Li  Li2922  1  0.232799  0.238702  0.521039  1
  Li  Li2923  1  0.738702  0.267201  0.478961  1
  Li  Li2924  1  0.767201  0.761298  0.521039  1
  Li  Li2925  1  0.738702  0.732799  0.521039  1
  Li  Li2926  1  0.232799  0.761298  0.478961  1
  Li  Li2927  1  0.767201  0.238702  0.478961  1
  Li  Li2928  1  0.521039  0.261298  0.267201  1
  Li  Li2929  1  0.761298  0.978961  0.732799  1
  Li  Li2930  1  0.478961  0.738702  0.267201  1
  Li  Li2931  1  0.238702  0.021039  0.732799  1
  Li  Li2932  1  0.521039  0.738702  0.732799  1
  Li  Li2933  1  0.238702  0.978961  0.267201  1
  Li  Li2934  1  0.478961  0.261298  0.732799  1
  Li  Li2935  1  0.761298  0.021039  0.267201  1
  Li  Li2936  1  0.267201  0.021039  0.761298  1
  Li  Li2937  1  0.521039  0.232799  0.238702  1
  Li  Li2938  1  0.732799  0.978961  0.761298  1
  Li  Li2939  1  0.478961  0.767201  0.238702  1
  Li  Li2940  1  0.267201  0.978961  0.238702  1
  Li  Li2941  1  0.478961  0.232799  0.761298  1
  Li  Li2942  1  0.732799  0.021039  0.238702  1
  Li  Li2943  1  0.521039  0.767201  0.761298  1
  Li  Li2944  1  0.761298  0.767201  0.521039  1
  Li  Li2945  1  0.761298  0.232799  0.478961  1
  Li  Li2946  1  0.732799  0.738702  0.521039  1
  Li  Li2947  1  0.238702  0.767201  0.478961  1
  Li  Li2948  1  0.267201  0.261298  0.521039  1
  Li  Li2949  1  0.238702  0.232799  0.521039  1
  Li  Li2950  1  0.732799  0.261298  0.478961  1
  Li  Li2951  1  0.267201  0.738702  0.478961  1
  Li  Li2952  1  0.521039  0.761298  0.767201  1
  Li  Li2953  1  0.761298  0.478961  0.232799  1
  Li  Li2954  1  0.478961  0.238702  0.767201  1
  Li  Li2955  1  0.238702  0.521039  0.232799  1
  Li  Li2956  1  0.521039  0.238702  0.232799  1
  Li  Li2957  1  0.238702  0.478961  0.767201  1
  Li  Li2958  1  0.478961  0.761298  0.232799  1
  Li  Li2959  1  0.761298  0.521039  0.767201  1
  Li  Li2960  1  0.267201  0.521039  0.261298  1
  Li  Li2961  1  0.521039  0.732799  0.738702  1
  Li  Li2962  1  0.732799  0.478961  0.261298  1
  Li  Li2963  1  0.478961  0.267201  0.738702  1
  Li  Li2964  1  0.267201  0.478961  0.738702  1
  Li  Li2965  1  0.478961  0.732799  0.261298  1
  Li  Li2966  1  0.732799  0.521039  0.738702  1
  Li  Li2967  1  0.521039  0.267201  0.261298  1
  Li  Li2968  1  0.761298  0.267201  0.021039  1
  Li  Li2969  1  0.761298  0.732799  0.978961  1
  Li  Li2970  1  0.732799  0.238702  0.021039  1
  Li  Li2971  1  0.238702  0.267201  0.978961  1
  Li  Li2972  1  0.267201  0.761298  0.021039  1
  Li  Li2973  1  0.238702  0.732799  0.021039  1
  Li  Li2974  1  0.732799  0.761298  0.978961  1
  Li  Li2975  1  0.267201  0.238702  0.978961  1
  Li  Li2976  1  0.468611  0.292840  0.799866  1
  Li  Li2977  1  0.292840  0.531389  0.200134  1
  Li  Li2978  1  0.531389  0.707160  0.799866  1
  Li  Li2979  1  0.707160  0.468611  0.200134  1
  Li  Li2980  1  0.468611  0.707160  0.200134  1
  Li  Li2981  1  0.707160  0.531389  0.799866  1
  Li  Li2982  1  0.531389  0.292840  0.200134  1
  Li  Li2983  1  0.292840  0.468611  0.799866  1
  Li  Li2984  1  0.799866  0.468611  0.292840  1
  Li  Li2985  1  0.468611  0.200134  0.707160  1
  Li  Li2986  1  0.200134  0.531389  0.292840  1
  Li  Li2987  1  0.531389  0.799866  0.707160  1
  Li  Li2988  1  0.799866  0.531389  0.707160  1
  Li  Li2989  1  0.531389  0.200134  0.292840  1
  Li  Li2990  1  0.200134  0.468611  0.707160  1
  Li  Li2991  1  0.468611  0.799866  0.292840  1
  Li  Li2992  1  0.292840  0.799866  0.468611  1
  Li  Li2993  1  0.292840  0.200134  0.531389  1
  Li  Li2994  1  0.200134  0.707160  0.468611  1
  Li  Li2995  1  0.707160  0.799866  0.531389  1
  Li  Li2996  1  0.799866  0.292840  0.468611  1
  Li  Li2997  1  0.707160  0.200134  0.468611  1
  Li  Li2998  1  0.200134  0.292840  0.531389  1
  Li  Li2999  1  0.799866  0.707160  0.531389  1
  Li  Li3000  1  0.468611  0.792840  0.299866  1
  Li  Li3001  1  0.292840  0.031389  0.700134  1
  Li  Li3002  1  0.531389  0.207160  0.299866  1
  Li  Li3003  1  0.707160  0.968611  0.700134  1
  Li  Li3004  1  0.468611  0.207160  0.700134  1
  Li  Li3005  1  0.707160  0.031389  0.299866  1
  Li  Li3006  1  0.531389  0.792840  0.700134  1
  Li  Li3007  1  0.292840  0.968611  0.299866  1
  Li  Li3008  1  0.799866  0.968611  0.792840  1
  Li  Li3009  1  0.468611  0.700134  0.207160  1
  Li  Li3010  1  0.200134  0.031389  0.792840  1
  Li  Li3011  1  0.531389  0.299866  0.207160  1
  Li  Li3012  1  0.799866  0.031389  0.207160  1
  Li  Li3013  1  0.531389  0.700134  0.792840  1
  Li  Li3014  1  0.200134  0.968611  0.207160  1
  Li  Li3015  1  0.468611  0.299866  0.792840  1
  Li  Li3016  1  0.292840  0.299866  0.968611  1
  Li  Li3017  1  0.292840  0.700134  0.031389  1
  Li  Li3018  1  0.200134  0.207160  0.968611  1
  Li  Li3019  1  0.707160  0.299866  0.031389  1
  Li  Li3020  1  0.799866  0.792840  0.968611  1
  Li  Li3021  1  0.707160  0.700134  0.968611  1
  Li  Li3022  1  0.200134  0.792840  0.031389  1
  Li  Li3023  1  0.799866  0.207160  0.031389  1
  Li  Li3024  1  0.968611  0.292840  0.299866  1
  Li  Li3025  1  0.792840  0.531389  0.700134  1
  Li  Li3026  1  0.031389  0.707160  0.299866  1
  Li  Li3027  1  0.207160  0.468611  0.700134  1
  Li  Li3028  1  0.968611  0.707160  0.700134  1
  Li  Li3029  1  0.207160  0.531389  0.299866  1
  Li  Li3030  1  0.031389  0.292840  0.700134  1
  Li  Li3031  1  0.792840  0.468611  0.299866  1
  Li  Li3032  1  0.299866  0.468611  0.792840  1
  Li  Li3033  1  0.968611  0.200134  0.207160  1
  Li  Li3034  1  0.700134  0.531389  0.792840  1
  Li  Li3035  1  0.031389  0.799866  0.207160  1
  Li  Li3036  1  0.299866  0.531389  0.207160  1
  Li  Li3037  1  0.031389  0.200134  0.792840  1
  Li  Li3038  1  0.700134  0.468611  0.207160  1
  Li  Li3039  1  0.968611  0.799866  0.792840  1
  Li  Li3040  1  0.792840  0.799866  0.968611  1
  Li  Li3041  1  0.792840  0.200134  0.031389  1
  Li  Li3042  1  0.700134  0.707160  0.968611  1
  Li  Li3043  1  0.207160  0.799866  0.031389  1
  Li  Li3044  1  0.299866  0.292840  0.968611  1
  Li  Li3045  1  0.207160  0.200134  0.968611  1
  Li  Li3046  1  0.700134  0.292840  0.031389  1
  Li  Li3047  1  0.299866  0.707160  0.031389  1
  Li  Li3048  1  0.968611  0.792840  0.799866  1
  Li  Li3049  1  0.792840  0.031389  0.200134  1
  Li  Li3050  1  0.031389  0.207160  0.799866  1
  Li  Li3051  1  0.207160  0.968611  0.200134  1
  Li  Li3052  1  0.968611  0.207160  0.200134  1
  Li  Li3053  1  0.207160  0.031389  0.799866  1
  Li  Li3054  1  0.031389  0.792840  0.200134  1
  Li  Li3055  1  0.792840  0.968611  0.799866  1
  Li  Li3056  1  0.299866  0.968611  0.292840  1
  Li  Li3057  1  0.968611  0.700134  0.707160  1
  Li  Li3058  1  0.700134  0.031389  0.292840  1
  Li  Li3059  1  0.031389  0.299866  0.707160  1
  Li  Li3060  1  0.299866  0.031389  0.707160  1
  Li  Li3061  1  0.031389  0.700134  0.292840  1
  Li  Li3062  1  0.700134  0.968611  0.707160  1
  Li  Li3063  1  0.968611  0.299866  0.292840  1
  Li  Li3064  1  0.792840  0.299866  0.468611  1
  Li  Li3065  1  0.792840  0.700134  0.531389  1
  Li  Li3066  1  0.700134  0.207160  0.468611  1
  Li  Li3067  1  0.207160  0.299866  0.531389  1
  Li  Li3068  1  0.299866  0.792840  0.468611  1
  Li  Li3069  1  0.207160  0.700134  0.468611  1
  Li  Li3070  1  0.700134  0.792840  0.531389  1
  Li  Li3071  1  0.299866  0.207160  0.531389  1
  Li  Li3072  1  0.227018  0.225698  0.523434  1
  Li  Li3073  1  0.225698  0.772982  0.476566  1
  Li  Li3074  1  0.772982  0.774302  0.523434  1
  Li  Li3075  1  0.774302  0.227018  0.476566  1
  Li  Li3076  1  0.227018  0.774302  0.476566  1
  Li  Li3077  1  0.774302  0.772982  0.523434  1
  Li  Li3078  1  0.772982  0.225698  0.476566  1
  Li  Li3079  1  0.225698  0.227018  0.523434  1
  Li  Li3080  1  0.523434  0.227018  0.225698  1
  Li  Li3081  1  0.227018  0.476566  0.774302  1
  Li  Li3082  1  0.476566  0.772982  0.225698  1
  Li  Li3083  1  0.772982  0.523434  0.774302  1
  Li  Li3084  1  0.523434  0.772982  0.774302  1
  Li  Li3085  1  0.772982  0.476566  0.225698  1
  Li  Li3086  1  0.476566  0.227018  0.774302  1
  Li  Li3087  1  0.227018  0.523434  0.225698  1
  Li  Li3088  1  0.225698  0.523434  0.227018  1
  Li  Li3089  1  0.225698  0.476566  0.772982  1
  Li  Li3090  1  0.476566  0.774302  0.227018  1
  Li  Li3091  1  0.774302  0.523434  0.772982  1
  Li  Li3092  1  0.523434  0.225698  0.227018  1
  Li  Li3093  1  0.774302  0.476566  0.227018  1
  Li  Li3094  1  0.476566  0.225698  0.772982  1
  Li  Li3095  1  0.523434  0.774302  0.772982  1
  Li  Li3096  1  0.227018  0.725698  0.023434  1
  Li  Li3097  1  0.225698  0.272982  0.976566  1
  Li  Li3098  1  0.772982  0.274302  0.023434  1
  Li  Li3099  1  0.774302  0.727018  0.976566  1
  Li  Li3100  1  0.227018  0.274302  0.976566  1
  Li  Li3101  1  0.774302  0.272982  0.023434  1
  Li  Li3102  1  0.772982  0.725698  0.976566  1
  Li  Li3103  1  0.225698  0.727018  0.023434  1
  Li  Li3104  1  0.523434  0.727018  0.725698  1
  Li  Li3105  1  0.227018  0.976566  0.274302  1
  Li  Li3106  1  0.476566  0.272982  0.725698  1
  Li  Li3107  1  0.772982  0.023434  0.274302  1
  Li  Li3108  1  0.523434  0.272982  0.274302  1
  Li  Li3109  1  0.772982  0.976566  0.725698  1
  Li  Li3110  1  0.476566  0.727018  0.274302  1
  Li  Li3111  1  0.227018  0.023434  0.725698  1
  Li  Li3112  1  0.225698  0.023434  0.727018  1
  Li  Li3113  1  0.225698  0.976566  0.272982  1
  Li  Li3114  1  0.476566  0.274302  0.727018  1
  Li  Li3115  1  0.774302  0.023434  0.272982  1
  Li  Li3116  1  0.523434  0.725698  0.727018  1
  Li  Li3117  1  0.774302  0.976566  0.727018  1
  Li  Li3118  1  0.476566  0.725698  0.272982  1
  Li  Li3119  1  0.523434  0.274302  0.272982  1
  Li  Li3120  1  0.727018  0.225698  0.023434  1
  Li  Li3121  1  0.725698  0.772982  0.976566  1
  Li  Li3122  1  0.272982  0.774302  0.023434  1
  Li  Li3123  1  0.274302  0.227018  0.976566  1
  Li  Li3124  1  0.727018  0.774302  0.976566  1
  Li  Li3125  1  0.274302  0.772982  0.023434  1
  Li  Li3126  1  0.272982  0.225698  0.976566  1
  Li  Li3127  1  0.725698  0.227018  0.023434  1
  Li  Li3128  1  0.023434  0.227018  0.725698  1
  Li  Li3129  1  0.727018  0.476566  0.274302  1
  Li  Li3130  1  0.976566  0.772982  0.725698  1
  Li  Li3131  1  0.272982  0.523434  0.274302  1
  Li  Li3132  1  0.023434  0.772982  0.274302  1
  Li  Li3133  1  0.272982  0.476566  0.725698  1
  Li  Li3134  1  0.976566  0.227018  0.274302  1
  Li  Li3135  1  0.727018  0.523434  0.725698  1
  Li  Li3136  1  0.725698  0.523434  0.727018  1
  Li  Li3137  1  0.725698  0.476566  0.272982  1
  Li  Li3138  1  0.976566  0.774302  0.727018  1
  Li  Li3139  1  0.274302  0.523434  0.272982  1
  Li  Li3140  1  0.023434  0.225698  0.727018  1
  Li  Li3141  1  0.274302  0.476566  0.727018  1
  Li  Li3142  1  0.976566  0.225698  0.272982  1
  Li  Li3143  1  0.023434  0.774302  0.272982  1
  Li  Li3144  1  0.727018  0.725698  0.523434  1
  Li  Li3145  1  0.725698  0.272982  0.476566  1
  Li  Li3146  1  0.272982  0.274302  0.523434  1
  Li  Li3147  1  0.274302  0.727018  0.476566  1
  Li  Li3148  1  0.727018  0.274302  0.476566  1
  Li  Li3149  1  0.274302  0.272982  0.523434  1
  Li  Li3150  1  0.272982  0.725698  0.476566  1
  Li  Li3151  1  0.725698  0.727018  0.523434  1
  Li  Li3152  1  0.023434  0.727018  0.225698  1
  Li  Li3153  1  0.727018  0.976566  0.774302  1
  Li  Li3154  1  0.976566  0.272982  0.225698  1
  Li  Li3155  1  0.272982  0.023434  0.774302  1
  Li  Li3156  1  0.023434  0.272982  0.774302  1
  Li  Li3157  1  0.272982  0.976566  0.225698  1
  Li  Li3158  1  0.976566  0.727018  0.774302  1
  Li  Li3159  1  0.727018  0.023434  0.225698  1
  Li  Li3160  1  0.725698  0.023434  0.227018  1
  Li  Li3161  1  0.725698  0.976566  0.772982  1
  Li  Li3162  1  0.976566  0.274302  0.227018  1
  Li  Li3163  1  0.274302  0.023434  0.772982  1
  Li  Li3164  1  0.023434  0.725698  0.227018  1
  Li  Li3165  1  0.274302  0.976566  0.227018  1
  Li  Li3166  1  0.976566  0.725698  0.772982  1
  Li  Li3167  1  0.023434  0.274302  0.772982  1
  Li  Li3168  1  0.020718  0.198013  0.801195  1
  Li  Li3169  1  0.198013  0.979282  0.198805  1
  Li  Li3170  1  0.979282  0.801987  0.801195  1
  Li  Li3171  1  0.801987  0.020718  0.198805  1
  Li  Li3172  1  0.020718  0.801987  0.198805  1
  Li  Li3173  1  0.801987  0.979282  0.801195  1
  Li  Li3174  1  0.979282  0.198013  0.198805  1
  Li  Li3175  1  0.198013  0.020718  0.801195  1
  Li  Li3176  1  0.801195  0.020718  0.198013  1
  Li  Li3177  1  0.020718  0.198805  0.801987  1
  Li  Li3178  1  0.198805  0.979282  0.198013  1
  Li  Li3179  1  0.979282  0.801195  0.801987  1
  Li  Li3180  1  0.801195  0.979282  0.801987  1
  Li  Li3181  1  0.979282  0.198805  0.198013  1
  Li  Li3182  1  0.198805  0.020718  0.801987  1
  Li  Li3183  1  0.020718  0.801195  0.198013  1
  Li  Li3184  1  0.198013  0.801195  0.020718  1
  Li  Li3185  1  0.198013  0.198805  0.979282  1
  Li  Li3186  1  0.198805  0.801987  0.020718  1
  Li  Li3187  1  0.801987  0.801195  0.979282  1
  Li  Li3188  1  0.801195  0.198013  0.020718  1
  Li  Li3189  1  0.801987  0.198805  0.020718  1
  Li  Li3190  1  0.198805  0.198013  0.979282  1
  Li  Li3191  1  0.801195  0.801987  0.979282  1
  Li  Li3192  1  0.020718  0.698013  0.301195  1
  Li  Li3193  1  0.198013  0.479282  0.698805  1
  Li  Li3194  1  0.979282  0.301987  0.301195  1
  Li  Li3195  1  0.801987  0.520718  0.698805  1
  Li  Li3196  1  0.020718  0.301987  0.698805  1
  Li  Li3197  1  0.801987  0.479282  0.301195  1
  Li  Li3198  1  0.979282  0.698013  0.698805  1
  Li  Li3199  1  0.198013  0.520718  0.301195  1
  Li  Li3200  1  0.801195  0.520718  0.698013  1
  Li  Li3201  1  0.020718  0.698805  0.301987  1
  Li  Li3202  1  0.198805  0.479282  0.698013  1
  Li  Li3203  1  0.979282  0.301195  0.301987  1
  Li  Li3204  1  0.801195  0.479282  0.301987  1
  Li  Li3205  1  0.979282  0.698805  0.698013  1
  Li  Li3206  1  0.198805  0.520718  0.301987  1
  Li  Li3207  1  0.020718  0.301195  0.698013  1
  Li  Li3208  1  0.198013  0.301195  0.520718  1
  Li  Li3209  1  0.198013  0.698805  0.479282  1
  Li  Li3210  1  0.198805  0.301987  0.520718  1
  Li  Li3211  1  0.801987  0.301195  0.479282  1
  Li  Li3212  1  0.801195  0.698013  0.520718  1
  Li  Li3213  1  0.801987  0.698805  0.520718  1
  Li  Li3214  1  0.198805  0.698013  0.479282  1
  Li  Li3215  1  0.801195  0.301987  0.479282  1
  Li  Li3216  1  0.520718  0.198013  0.301195  1
  Li  Li3217  1  0.698013  0.979282  0.698805  1
  Li  Li3218  1  0.479282  0.801987  0.301195  1
  Li  Li3219  1  0.301987  0.020718  0.698805  1
  Li  Li3220  1  0.520718  0.801987  0.698805  1
  Li  Li3221  1  0.301987  0.979282  0.301195  1
  Li  Li3222  1  0.479282  0.198013  0.698805  1
  Li  Li3223  1  0.698013  0.020718  0.301195  1
  Li  Li3224  1  0.301195  0.020718  0.698013  1
  Li  Li3225  1  0.520718  0.198805  0.301987  1
  Li  Li3226  1  0.698805  0.979282  0.698013  1
  Li  Li3227  1  0.479282  0.801195  0.301987  1
  Li  Li3228  1  0.301195  0.979282  0.301987  1
  Li  Li3229  1  0.479282  0.198805  0.698013  1
  Li  Li3230  1  0.698805  0.020718  0.301987  1
  Li  Li3231  1  0.520718  0.801195  0.698013  1
  Li  Li3232  1  0.698013  0.801195  0.520718  1
  Li  Li3233  1  0.698013  0.198805  0.479282  1
  Li  Li3234  1  0.698805  0.801987  0.520718  1
  Li  Li3235  1  0.301987  0.801195  0.479282  1
  Li  Li3236  1  0.301195  0.198013  0.520718  1
  Li  Li3237  1  0.301987  0.198805  0.520718  1
  Li  Li3238  1  0.698805  0.198013  0.479282  1
  Li  Li3239  1  0.301195  0.801987  0.479282  1
  Li  Li3240  1  0.520718  0.698013  0.801195  1
  Li  Li3241  1  0.698013  0.479282  0.198805  1
  Li  Li3242  1  0.479282  0.301987  0.801195  1
  Li  Li3243  1  0.301987  0.520718  0.198805  1
  Li  Li3244  1  0.520718  0.301987  0.198805  1
  Li  Li3245  1  0.301987  0.479282  0.801195  1
  Li  Li3246  1  0.479282  0.698013  0.198805  1
  Li  Li3247  1  0.698013  0.520718  0.801195  1
  Li  Li3248  1  0.301195  0.520718  0.198013  1
  Li  Li3249  1  0.520718  0.698805  0.801987  1
  Li  Li3250  1  0.698805  0.479282  0.198013  1
  Li  Li3251  1  0.479282  0.301195  0.801987  1
  Li  Li3252  1  0.301195  0.479282  0.801987  1
  Li  Li3253  1  0.479282  0.698805  0.198013  1
  Li  Li3254  1  0.698805  0.520718  0.801987  1
  Li  Li3255  1  0.520718  0.301195  0.198013  1
  Li  Li3256  1  0.698013  0.301195  0.020718  1
  Li  Li3257  1  0.698013  0.698805  0.979282  1
  Li  Li3258  1  0.698805  0.301987  0.020718  1
  Li  Li3259  1  0.301987  0.301195  0.979282  1
  Li  Li3260  1  0.301195  0.698013  0.020718  1
  Li  Li3261  1  0.301987  0.698805  0.020718  1
  Li  Li3262  1  0.698805  0.698013  0.979282  1
  Li  Li3263  1  0.301195  0.301987  0.979282  1
  Li  Li3264  1  0.468367  0.287672  0.786609  1
  Li  Li3265  1  0.287672  0.531633  0.213391  1
  Li  Li3266  1  0.531633  0.712328  0.786609  1
  Li  Li3267  1  0.712328  0.468367  0.213391  1
  Li  Li3268  1  0.468367  0.712328  0.213391  1
  Li  Li3269  1  0.712328  0.531633  0.786609  1
  Li  Li3270  1  0.531633  0.287672  0.213391  1
  Li  Li3271  1  0.287672  0.468367  0.786609  1
  Li  Li3272  1  0.786609  0.468367  0.287672  1
  Li  Li3273  1  0.468367  0.213391  0.712328  1
  Li  Li3274  1  0.213391  0.531633  0.287672  1
  Li  Li3275  1  0.531633  0.786609  0.712328  1
  Li  Li3276  1  0.786609  0.531633  0.712328  1
  Li  Li3277  1  0.531633  0.213391  0.287672  1
  Li  Li3278  1  0.213391  0.468367  0.712328  1
  Li  Li3279  1  0.468367  0.786609  0.287672  1
  Li  Li3280  1  0.287672  0.786609  0.468367  1
  Li  Li3281  1  0.287672  0.213391  0.531633  1
  Li  Li3282  1  0.213391  0.712328  0.468367  1
  Li  Li3283  1  0.712328  0.786609  0.531633  1
  Li  Li3284  1  0.786609  0.287672  0.468367  1
  Li  Li3285  1  0.712328  0.213391  0.468367  1
  Li  Li3286  1  0.213391  0.287672  0.531633  1
  Li  Li3287  1  0.786609  0.712328  0.531633  1
  Li  Li3288  1  0.468367  0.787672  0.286609  1
  Li  Li3289  1  0.287672  0.031634  0.713391  1
  Li  Li3290  1  0.531633  0.212328  0.286609  1
  Li  Li3291  1  0.712328  0.968367  0.713391  1
  Li  Li3292  1  0.468367  0.212328  0.713391  1
  Li  Li3293  1  0.712328  0.031634  0.286609  1
  Li  Li3294  1  0.531633  0.787672  0.713391  1
  Li  Li3295  1  0.287672  0.968367  0.286609  1
  Li  Li3296  1  0.786609  0.968367  0.787672  1
  Li  Li3297  1  0.468367  0.713391  0.212328  1
  Li  Li3298  1  0.213391  0.031634  0.787672  1
  Li  Li3299  1  0.531633  0.286609  0.212328  1
  Li  Li3300  1  0.786609  0.031634  0.212328  1
  Li  Li3301  1  0.531633  0.713391  0.787672  1
  Li  Li3302  1  0.213391  0.968367  0.212328  1
  Li  Li3303  1  0.468367  0.286609  0.787672  1
  Li  Li3304  1  0.287672  0.286609  0.968367  1
  Li  Li3305  1  0.287672  0.713391  0.031634  1
  Li  Li3306  1  0.213391  0.212328  0.968367  1
  Li  Li3307  1  0.712328  0.286609  0.031634  1
  Li  Li3308  1  0.786609  0.787672  0.968367  1
  Li  Li3309  1  0.712328  0.713391  0.968367  1
  Li  Li3310  1  0.213391  0.787672  0.031634  1
  Li  Li3311  1  0.786609  0.212328  0.031634  1
  Li  Li3312  1  0.968367  0.287672  0.286609  1
  Li  Li3313  1  0.787672  0.531633  0.713391  1
  Li  Li3314  1  0.031634  0.712328  0.286609  1
  Li  Li3315  1  0.212328  0.468367  0.713391  1
  Li  Li3316  1  0.968367  0.712328  0.713391  1
  Li  Li3317  1  0.212328  0.531633  0.286609  1
  Li  Li3318  1  0.031634  0.287672  0.713391  1
  Li  Li3319  1  0.787672  0.468367  0.286609  1
  Li  Li3320  1  0.286609  0.468367  0.787672  1
  Li  Li3321  1  0.968367  0.213391  0.212328  1
  Li  Li3322  1  0.713391  0.531633  0.787672  1
  Li  Li3323  1  0.031634  0.786609  0.212328  1
  Li  Li3324  1  0.286609  0.531633  0.212328  1
  Li  Li3325  1  0.031634  0.213391  0.787672  1
  Li  Li3326  1  0.713391  0.468367  0.212328  1
  Li  Li3327  1  0.968367  0.786609  0.787672  1
  Li  Li3328  1  0.787672  0.786609  0.968367  1
  Li  Li3329  1  0.787672  0.213391  0.031634  1
  Li  Li3330  1  0.713391  0.712328  0.968367  1
  Li  Li3331  1  0.212328  0.786609  0.031634  1
  Li  Li3332  1  0.286609  0.287672  0.968367  1
  Li  Li3333  1  0.212328  0.213391  0.968367  1
  Li  Li3334  1  0.713391  0.287672  0.031634  1
  Li  Li3335  1  0.286609  0.712328  0.031634  1
  Li  Li3336  1  0.968367  0.787672  0.786609  1
  Li  Li3337  1  0.787672  0.031634  0.213391  1
  Li  Li3338  1  0.031634  0.212328  0.786609  1
  Li  Li3339  1  0.212328  0.968367  0.213391  1
  Li  Li3340  1  0.968367  0.212328  0.213391  1
  Li  Li3341  1  0.212328  0.031634  0.786609  1
  Li  Li3342  1  0.031634  0.787672  0.213391  1
  Li  Li3343  1  0.787672  0.968367  0.786609  1
  Li  Li3344  1  0.286609  0.968367  0.287672  1
  Li  Li3345  1  0.968367  0.713391  0.712328  1
  Li  Li3346  1  0.713391  0.031634  0.287672  1
  Li  Li3347  1  0.031634  0.286609  0.712328  1
  Li  Li3348  1  0.286609  0.031634  0.712328  1
  Li  Li3349  1  0.031634  0.713391  0.287672  1
  Li  Li3350  1  0.713391  0.968367  0.712328  1
  Li  Li3351  1  0.968367  0.286609  0.287672  1
  Li  Li3352  1  0.787672  0.286609  0.468367  1
  Li  Li3353  1  0.787672  0.713391  0.531633  1
  Li  Li3354  1  0.713391  0.212328  0.468367  1
  Li  Li3355  1  0.212328  0.286609  0.531633  1
  Li  Li3356  1  0.286609  0.787672  0.468367  1
  Li  Li3357  1  0.212328  0.713391  0.468367  1
  Li  Li3358  1  0.713391  0.787672  0.531633  1
  Li  Li3359  1  0.286609  0.212328  0.531633  1
  Li  Li3360  1  0.220587  0.447586  0.684040  1
  Li  Li3361  1  0.447586  0.779413  0.315960  1
  Li  Li3362  1  0.779413  0.552414  0.684040  1
  Li  Li3363  1  0.552414  0.220587  0.315960  1
  Li  Li3364  1  0.220587  0.552414  0.315960  1
  Li  Li3365  1  0.552414  0.779413  0.684040  1
  Li  Li3366  1  0.779413  0.447586  0.315960  1
  Li  Li3367  1  0.447586  0.220587  0.684040  1
  Li  Li3368  1  0.684040  0.220587  0.447586  1
  Li  Li3369  1  0.220587  0.315960  0.552414  1
  Li  Li3370  1  0.315960  0.779413  0.447586  1
  Li  Li3371  1  0.779413  0.684040  0.552414  1
  Li  Li3372  1  0.684040  0.779413  0.552414  1
  Li  Li3373  1  0.779413  0.315960  0.447586  1
  Li  Li3374  1  0.315960  0.220587  0.552414  1
  Li  Li3375  1  0.220587  0.684040  0.447586  1
  Li  Li3376  1  0.447586  0.684040  0.220587  1
  Li  Li3377  1  0.447586  0.315960  0.779413  1
  Li  Li3378  1  0.315960  0.552414  0.220587  1
  Li  Li3379  1  0.552414  0.684040  0.779413  1
  Li  Li3380  1  0.684040  0.447586  0.220587  1
  Li  Li3381  1  0.552414  0.315960  0.220587  1
  Li  Li3382  1  0.315960  0.447586  0.779413  1
  Li  Li3383  1  0.684040  0.552414  0.779413  1
  Li  Li3384  1  0.220587  0.947586  0.184040  1
  Li  Li3385  1  0.447586  0.279413  0.815960  1
  Li  Li3386  1  0.779413  0.052414  0.184040  1
  Li  Li3387  1  0.552414  0.720587  0.815960  1
  Li  Li3388  1  0.220587  0.052414  0.815960  1
  Li  Li3389  1  0.552414  0.279413  0.184040  1
  Li  Li3390  1  0.779413  0.947586  0.815960  1
  Li  Li3391  1  0.447586  0.720587  0.184040  1
  Li  Li3392  1  0.684040  0.720587  0.947586  1
  Li  Li3393  1  0.220587  0.815960  0.052414  1
  Li  Li3394  1  0.315960  0.279413  0.947586  1
  Li  Li3395  1  0.779413  0.184040  0.052414  1
  Li  Li3396  1  0.684040  0.279413  0.052414  1
  Li  Li3397  1  0.779413  0.815960  0.947586  1
  Li  Li3398  1  0.315960  0.720587  0.052414  1
  Li  Li3399  1  0.220587  0.184040  0.947586  1
  Li  Li3400  1  0.447586  0.184040  0.720587  1
  Li  Li3401  1  0.447586  0.815960  0.279413  1
  Li  Li3402  1  0.315960  0.052414  0.720587  1
  Li  Li3403  1  0.552414  0.184040  0.279413  1
  Li  Li3404  1  0.684040  0.947586  0.720587  1
  Li  Li3405  1  0.552414  0.815960  0.720587  1
  Li  Li3406  1  0.315960  0.947586  0.279413  1
  Li  Li3407  1  0.684040  0.052414  0.279413  1
  Li  Li3408  1  0.720587  0.447586  0.184040  1
  Li  Li3409  1  0.947586  0.779413  0.815960  1
  Li  Li3410  1  0.279413  0.552414  0.184040  1
  Li  Li3411  1  0.052414  0.220587  0.815960  1
  Li  Li3412  1  0.720587  0.552414  0.815960  1
  Li  Li3413  1  0.052414  0.779413  0.184040  1
  Li  Li3414  1  0.279413  0.447586  0.815960  1
  Li  Li3415  1  0.947586  0.220587  0.184040  1
  Li  Li3416  1  0.184040  0.220587  0.947586  1
  Li  Li3417  1  0.720587  0.315960  0.052414  1
  Li  Li3418  1  0.815960  0.779413  0.947586  1
  Li  Li3419  1  0.279413  0.684040  0.052414  1
  Li  Li3420  1  0.184040  0.779413  0.052414  1
  Li  Li3421  1  0.279413  0.315960  0.947586  1
  Li  Li3422  1  0.815960  0.220587  0.052414  1
  Li  Li3423  1  0.720587  0.684040  0.947586  1
  Li  Li3424  1  0.947586  0.684040  0.720587  1
  Li  Li3425  1  0.947586  0.315960  0.279413  1
  Li  Li3426  1  0.815960  0.552414  0.720587  1
  Li  Li3427  1  0.052414  0.684040  0.279413  1
  Li  Li3428  1  0.184040  0.447586  0.720587  1
  Li  Li3429  1  0.052414  0.315960  0.720587  1
  Li  Li3430  1  0.815960  0.447586  0.279413  1
  Li  Li3431  1  0.184040  0.552414  0.279413  1
  Li  Li3432  1  0.720587  0.947586  0.684040  1
  Li  Li3433  1  0.947586  0.279413  0.315960  1
  Li  Li3434  1  0.279413  0.052414  0.684040  1
  Li  Li3435  1  0.052414  0.720587  0.315960  1
  Li  Li3436  1  0.720587  0.052414  0.315960  1
  Li  Li3437  1  0.052414  0.279413  0.684040  1
  Li  Li3438  1  0.279413  0.947586  0.315960  1
  Li  Li3439  1  0.947586  0.720587  0.684040  1
  Li  Li3440  1  0.184040  0.720587  0.447586  1
  Li  Li3441  1  0.720587  0.815960  0.552414  1
  Li  Li3442  1  0.815960  0.279413  0.447586  1
  Li  Li3443  1  0.279413  0.184040  0.552414  1
  Li  Li3444  1  0.184040  0.279413  0.552414  1
  Li  Li3445  1  0.279413  0.815960  0.447586  1
  Li  Li3446  1  0.815960  0.720587  0.552414  1
  Li  Li3447  1  0.720587  0.184040  0.447586  1
  Li  Li3448  1  0.947586  0.184040  0.220587  1
  Li  Li3449  1  0.947586  0.815960  0.779413  1
  Li  Li3450  1  0.815960  0.052414  0.220587  1
  Li  Li3451  1  0.052414  0.184040  0.779413  1
  Li  Li3452  1  0.184040  0.947586  0.220587  1
  Li  Li3453  1  0.052414  0.815960  0.220587  1
  Li  Li3454  1  0.815960  0.947586  0.779413  1
  Li  Li3455  1  0.184040  0.052414  0.779413  1
  Li  Li3456  1  0.266767  0.472863  0.769699  1
  Li  Li3457  1  0.472863  0.733233  0.230301  1
  Li  Li3458  1  0.733233  0.527137  0.769699  1
  Li  Li3459  1  0.527137  0.266767  0.230301  1
  Li  Li3460  1  0.266767  0.527137  0.230301  1
  Li  Li3461  1  0.527137  0.733233  0.769699  1
  Li  Li3462  1  0.733233  0.472863  0.230301  1
  Li  Li3463  1  0.472863  0.266767  0.769699  1
  Li  Li3464  1  0.769699  0.266767  0.472863  1
  Li  Li3465  1  0.266767  0.230301  0.527137  1
  Li  Li3466  1  0.230301  0.733233  0.472863  1
  Li  Li3467  1  0.733233  0.769699  0.527137  1
  Li  Li3468  1  0.769699  0.733233  0.527137  1
  Li  Li3469  1  0.733233  0.230301  0.472863  1
  Li  Li3470  1  0.230301  0.266767  0.527137  1
  Li  Li3471  1  0.266767  0.769699  0.472863  1
  Li  Li3472  1  0.472863  0.769699  0.266767  1
  Li  Li3473  1  0.472863  0.230301  0.733233  1
  Li  Li3474  1  0.230301  0.527137  0.266767  1
  Li  Li3475  1  0.527137  0.769699  0.733233  1
  Li  Li3476  1  0.769699  0.472863  0.266767  1
  Li  Li3477  1  0.527137  0.230301  0.266767  1
  Li  Li3478  1  0.230301  0.472863  0.733233  1
  Li  Li3479  1  0.769699  0.527137  0.733233  1
  Li  Li3480  1  0.266767  0.972863  0.269699  1
  Li  Li3481  1  0.472863  0.233233  0.730301  1
  Li  Li3482  1  0.733233  0.027137  0.269699  1
  Li  Li3483  1  0.527137  0.766767  0.730301  1
  Li  Li3484  1  0.266767  0.027137  0.730301  1
  Li  Li3485  1  0.527137  0.233233  0.269699  1
  Li  Li3486  1  0.733233  0.972863  0.730301  1
  Li  Li3487  1  0.472863  0.766767  0.269699  1
  Li  Li3488  1  0.769699  0.766767  0.972863  1
  Li  Li3489  1  0.266767  0.730301  0.027137  1
  Li  Li3490  1  0.230301  0.233233  0.972863  1
  Li  Li3491  1  0.733233  0.269699  0.027137  1
  Li  Li3492  1  0.769699  0.233233  0.027137  1
  Li  Li3493  1  0.733233  0.730301  0.972863  1
  Li  Li3494  1  0.230301  0.766767  0.027137  1
  Li  Li3495  1  0.266767  0.269699  0.972863  1
  Li  Li3496  1  0.472863  0.269699  0.766767  1
  Li  Li3497  1  0.472863  0.730301  0.233233  1
  Li  Li3498  1  0.230301  0.027137  0.766767  1
  Li  Li3499  1  0.527137  0.269699  0.233233  1
  Li  Li3500  1  0.769699  0.972863  0.766767  1
  Li  Li3501  1  0.527137  0.730301  0.766767  1
  Li  Li3502  1  0.230301  0.972863  0.233233  1
  Li  Li3503  1  0.769699  0.027137  0.233233  1
  Li  Li3504  1  0.766767  0.472863  0.269699  1
  Li  Li3505  1  0.972863  0.733233  0.730301  1
  Li  Li3506  1  0.233233  0.527137  0.269699  1
  Li  Li3507  1  0.027137  0.266767  0.730301  1
  Li  Li3508  1  0.766767  0.527137  0.730301  1
  Li  Li3509  1  0.027137  0.733233  0.269699  1
  Li  Li3510  1  0.233233  0.472863  0.730301  1
  Li  Li3511  1  0.972863  0.266767  0.269699  1
  Li  Li3512  1  0.269699  0.266767  0.972863  1
  Li  Li3513  1  0.766767  0.230301  0.027137  1
  Li  Li3514  1  0.730301  0.733233  0.972863  1
  Li  Li3515  1  0.233233  0.769699  0.027137  1
  Li  Li3516  1  0.269699  0.733233  0.027137  1
  Li  Li3517  1  0.233233  0.230301  0.972863  1
  Li  Li3518  1  0.730301  0.266767  0.027137  1
  Li  Li3519  1  0.766767  0.769699  0.972863  1
  Li  Li3520  1  0.972863  0.769699  0.766767  1
  Li  Li3521  1  0.972863  0.230301  0.233233  1
  Li  Li3522  1  0.730301  0.527137  0.766767  1
  Li  Li3523  1  0.027137  0.769699  0.233233  1
  Li  Li3524  1  0.269699  0.472863  0.766767  1
  Li  Li3525  1  0.027137  0.230301  0.766767  1
  Li  Li3526  1  0.730301  0.472863  0.233233  1
  Li  Li3527  1  0.269699  0.527137  0.233233  1
  Li  Li3528  1  0.766767  0.972863  0.769699  1
  Li  Li3529  1  0.972863  0.233233  0.230301  1
  Li  Li3530  1  0.233233  0.027137  0.769699  1
  Li  Li3531  1  0.027137  0.766767  0.230301  1
  Li  Li3532  1  0.766767  0.027137  0.230301  1
  Li  Li3533  1  0.027137  0.233233  0.769699  1
  Li  Li3534  1  0.233233  0.972863  0.230301  1
  Li  Li3535  1  0.972863  0.766767  0.769699  1
  Li  Li3536  1  0.269699  0.766767  0.472863  1
  Li  Li3537  1  0.766767  0.730301  0.527137  1
  Li  Li3538  1  0.730301  0.233233  0.472863  1
  Li  Li3539  1  0.233233  0.269699  0.527137  1
  Li  Li3540  1  0.269699  0.233233  0.527137  1
  Li  Li3541  1  0.233233  0.730301  0.472863  1
  Li  Li3542  1  0.730301  0.766767  0.527137  1
  Li  Li3543  1  0.766767  0.269699  0.472863  1
  Li  Li3544  1  0.972863  0.269699  0.266767  1
  Li  Li3545  1  0.972863  0.730301  0.733233  1
  Li  Li3546  1  0.730301  0.027137  0.266767  1
  Li  Li3547  1  0.027137  0.269699  0.733233  1
  Li  Li3548  1  0.269699  0.972863  0.266767  1
  Li  Li3549  1  0.027137  0.730301  0.266767  1
  Li  Li3550  1  0.730301  0.972863  0.733233  1
  Li  Li3551  1  0.269699  0.027137  0.733233  1
  Li  Li3552  1  0.323310  0.297101  0.960386  1
  Li  Li3553  1  0.297101  0.676690  0.039614  1
  Li  Li3554  1  0.676690  0.702899  0.960386  1
  Li  Li3555  1  0.702899  0.323310  0.039614  1
  Li  Li3556  1  0.323310  0.702899  0.039614  1
  Li  Li3557  1  0.702899  0.676690  0.960386  1
  Li  Li3558  1  0.676690  0.297101  0.039614  1
  Li  Li3559  1  0.297101  0.323310  0.960386  1
  Li  Li3560  1  0.960386  0.323310  0.297101  1
  Li  Li3561  1  0.323310  0.039614  0.702899  1
  Li  Li3562  1  0.039614  0.676690  0.297101  1
  Li  Li3563  1  0.676690  0.960386  0.702899  1
  Li  Li3564  1  0.960386  0.676690  0.702899  1
  Li  Li3565  1  0.676690  0.039614  0.297101  1
  Li  Li3566  1  0.039614  0.323310  0.702899  1
  Li  Li3567  1  0.323310  0.960386  0.297101  1
  Li  Li3568  1  0.297101  0.960386  0.323310  1
  Li  Li3569  1  0.297101  0.039614  0.676690  1
  Li  Li3570  1  0.039614  0.702899  0.323310  1
  Li  Li3571  1  0.702899  0.960386  0.676690  1
  Li  Li3572  1  0.960386  0.297101  0.323310  1
  Li  Li3573  1  0.702899  0.039614  0.323310  1
  Li  Li3574  1  0.039614  0.297101  0.676690  1
  Li  Li3575  1  0.960386  0.702899  0.676690  1
  Li  Li3576  1  0.323310  0.797101  0.460386  1
  Li  Li3577  1  0.297101  0.176690  0.539614  1
  Li  Li3578  1  0.676690  0.202899  0.460386  1
  Li  Li3579  1  0.702899  0.823310  0.539614  1
  Li  Li3580  1  0.323310  0.202899  0.539614  1
  Li  Li3581  1  0.702899  0.176690  0.460386  1
  Li  Li3582  1  0.676690  0.797101  0.539614  1
  Li  Li3583  1  0.297101  0.823310  0.460386  1
  Li  Li3584  1  0.960386  0.823310  0.797101  1
  Li  Li3585  1  0.323310  0.539614  0.202899  1
  Li  Li3586  1  0.039614  0.176690  0.797101  1
  Li  Li3587  1  0.676690  0.460386  0.202899  1
  Li  Li3588  1  0.960386  0.176690  0.202899  1
  Li  Li3589  1  0.676690  0.539614  0.797101  1
  Li  Li3590  1  0.039614  0.823310  0.202899  1
  Li  Li3591  1  0.323310  0.460386  0.797101  1
  Li  Li3592  1  0.297101  0.460386  0.823310  1
  Li  Li3593  1  0.297101  0.539614  0.176690  1
  Li  Li3594  1  0.039614  0.202899  0.823310  1
  Li  Li3595  1  0.702899  0.460386  0.176690  1
  Li  Li3596  1  0.960386  0.797101  0.823310  1
  Li  Li3597  1  0.702899  0.539614  0.823310  1
  Li  Li3598  1  0.039614  0.797101  0.176690  1
  Li  Li3599  1  0.960386  0.202899  0.176690  1
  Li  Li3600  1  0.823310  0.297101  0.460386  1
  Li  Li3601  1  0.797101  0.676690  0.539614  1
  Li  Li3602  1  0.176690  0.702899  0.460386  1
  Li  Li3603  1  0.202899  0.323310  0.539614  1
  Li  Li3604  1  0.823310  0.702899  0.539614  1
  Li  Li3605  1  0.202899  0.676690  0.460386  1
  Li  Li3606  1  0.176690  0.297101  0.539614  1
  Li  Li3607  1  0.797101  0.323310  0.460386  1
  Li  Li3608  1  0.460386  0.323310  0.797101  1
  Li  Li3609  1  0.823310  0.039614  0.202899  1
  Li  Li3610  1  0.539614  0.676690  0.797101  1
  Li  Li3611  1  0.176690  0.960386  0.202899  1
  Li  Li3612  1  0.460386  0.676690  0.202899  1
  Li  Li3613  1  0.176690  0.039614  0.797101  1
  Li  Li3614  1  0.539614  0.323310  0.202899  1
  Li  Li3615  1  0.823310  0.960386  0.797101  1
  Li  Li3616  1  0.797101  0.960386  0.823310  1
  Li  Li3617  1  0.797101  0.039614  0.176690  1
  Li  Li3618  1  0.539614  0.702899  0.823310  1
  Li  Li3619  1  0.202899  0.960386  0.176690  1
  Li  Li3620  1  0.460386  0.297101  0.823310  1
  Li  Li3621  1  0.202899  0.039614  0.823310  1
  Li  Li3622  1  0.539614  0.297101  0.176690  1
  Li  Li3623  1  0.460386  0.702899  0.176690  1
  Li  Li3624  1  0.823310  0.797101  0.960386  1
  Li  Li3625  1  0.797101  0.176690  0.039614  1
  Li  Li3626  1  0.176690  0.202899  0.960386  1
  Li  Li3627  1  0.202899  0.823310  0.039614  1
  Li  Li3628  1  0.823310  0.202899  0.039614  1
  Li  Li3629  1  0.202899  0.176690  0.960386  1
  Li  Li3630  1  0.176690  0.797101  0.039614  1
  Li  Li3631  1  0.797101  0.823310  0.960386  1
  Li  Li3632  1  0.460386  0.823310  0.297101  1
  Li  Li3633  1  0.823310  0.539614  0.702899  1
  Li  Li3634  1  0.539614  0.176690  0.297101  1
  Li  Li3635  1  0.176690  0.460386  0.702899  1
  Li  Li3636  1  0.460386  0.176690  0.702899  1
  Li  Li3637  1  0.176690  0.539614  0.297101  1
  Li  Li3638  1  0.539614  0.823310  0.702899  1
  Li  Li3639  1  0.823310  0.460386  0.297101  1
  Li  Li3640  1  0.797101  0.460386  0.323310  1
  Li  Li3641  1  0.797101  0.539614  0.676690  1
  Li  Li3642  1  0.539614  0.202899  0.323310  1
  Li  Li3643  1  0.202899  0.460386  0.676690  1
  Li  Li3644  1  0.460386  0.797101  0.323310  1
  Li  Li3645  1  0.202899  0.539614  0.323310  1
  Li  Li3646  1  0.539614  0.797101  0.676690  1
  Li  Li3647  1  0.460386  0.202899  0.676690  1
  Li  Li3648  1  0.294629  0.476213  0.781467  1
  Li  Li3649  1  0.476213  0.705371  0.218533  1
  Li  Li3650  1  0.705371  0.523787  0.781467  1
  Li  Li3651  1  0.523787  0.294629  0.218533  1
  Li  Li3652  1  0.294629  0.523787  0.218533  1
  Li  Li3653  1  0.523787  0.705371  0.781467  1
  Li  Li3654  1  0.705371  0.476213  0.218533  1
  Li  Li3655  1  0.476213  0.294629  0.781467  1
  Li  Li3656  1  0.781467  0.294629  0.476213  1
  Li  Li3657  1  0.294629  0.218533  0.523787  1
  Li  Li3658  1  0.218533  0.705371  0.476213  1
  Li  Li3659  1  0.705371  0.781467  0.523787  1
  Li  Li3660  1  0.781467  0.705371  0.523787  1
  Li  Li3661  1  0.705371  0.218533  0.476213  1
  Li  Li3662  1  0.218533  0.294629  0.523787  1
  Li  Li3663  1  0.294629  0.781467  0.476213  1
  Li  Li3664  1  0.476213  0.781467  0.294629  1
  Li  Li3665  1  0.476213  0.218533  0.705371  1
  Li  Li3666  1  0.218533  0.523787  0.294629  1
  Li  Li3667  1  0.523787  0.781467  0.705371  1
  Li  Li3668  1  0.781467  0.476213  0.294629  1
  Li  Li3669  1  0.523787  0.218533  0.294629  1
  Li  Li3670  1  0.218533  0.476213  0.705371  1
  Li  Li3671  1  0.781467  0.523787  0.705371  1
  Li  Li3672  1  0.294629  0.976213  0.281467  1
  Li  Li3673  1  0.476213  0.205371  0.718533  1
  Li  Li3674  1  0.705371  0.023787  0.281467  1
  Li  Li3675  1  0.523787  0.794629  0.718533  1
  Li  Li3676  1  0.294629  0.023787  0.718533  1
  Li  Li3677  1  0.523787  0.205371  0.281467  1
  Li  Li3678  1  0.705371  0.976213  0.718533  1
  Li  Li3679  1  0.476213  0.794629  0.281467  1
  Li  Li3680  1  0.781467  0.794629  0.976213  1
  Li  Li3681  1  0.294629  0.718533  0.023787  1
  Li  Li3682  1  0.218533  0.205371  0.976213  1
  Li  Li3683  1  0.705371  0.281467  0.023787  1
  Li  Li3684  1  0.781467  0.205371  0.023787  1
  Li  Li3685  1  0.705371  0.718533  0.976213  1
  Li  Li3686  1  0.218533  0.794629  0.023787  1
  Li  Li3687  1  0.294629  0.281467  0.976213  1
  Li  Li3688  1  0.476213  0.281467  0.794629  1
  Li  Li3689  1  0.476213  0.718533  0.205371  1
  Li  Li3690  1  0.218533  0.023787  0.794629  1
  Li  Li3691  1  0.523787  0.281467  0.205371  1
  Li  Li3692  1  0.781467  0.976213  0.794629  1
  Li  Li3693  1  0.523787  0.718533  0.794629  1
  Li  Li3694  1  0.218533  0.976213  0.205371  1
  Li  Li3695  1  0.781467  0.023787  0.205371  1
  Li  Li3696  1  0.794629  0.476213  0.281467  1
  Li  Li3697  1  0.976213  0.705371  0.718533  1
  Li  Li3698  1  0.205371  0.523787  0.281467  1
  Li  Li3699  1  0.023787  0.294629  0.718533  1
  Li  Li3700  1  0.794629  0.523787  0.718533  1
  Li  Li3701  1  0.023787  0.705371  0.281467  1
  Li  Li3702  1  0.205371  0.476213  0.718533  1
  Li  Li3703  1  0.976213  0.294629  0.281467  1
  Li  Li3704  1  0.281467  0.294629  0.976213  1
  Li  Li3705  1  0.794629  0.218533  0.023787  1
  Li  Li3706  1  0.718533  0.705371  0.976213  1
  Li  Li3707  1  0.205371  0.781467  0.023787  1
  Li  Li3708  1  0.281467  0.705371  0.023787  1
  Li  Li3709  1  0.205371  0.218533  0.976213  1
  Li  Li3710  1  0.718533  0.294629  0.023787  1
  Li  Li3711  1  0.794629  0.781467  0.976213  1
  Li  Li3712  1  0.976213  0.781467  0.794629  1
  Li  Li3713  1  0.976213  0.218533  0.205371  1
  Li  Li3714  1  0.718533  0.523787  0.794629  1
  Li  Li3715  1  0.023787  0.781467  0.205371  1
  Li  Li3716  1  0.281467  0.476213  0.794629  1
  Li  Li3717  1  0.023787  0.218533  0.794629  1
  Li  Li3718  1  0.718533  0.476213  0.205371  1
  Li  Li3719  1  0.281467  0.523787  0.205371  1
  Li  Li3720  1  0.794629  0.976213  0.781467  1
  Li  Li3721  1  0.976213  0.205371  0.218533  1
  Li  Li3722  1  0.205371  0.023787  0.781467  1
  Li  Li3723  1  0.023787  0.794629  0.218533  1
  Li  Li3724  1  0.794629  0.023787  0.218533  1
  Li  Li3725  1  0.023787  0.205371  0.781467  1
  Li  Li3726  1  0.205371  0.976213  0.218533  1
  Li  Li3727  1  0.976213  0.794629  0.781467  1
  Li  Li3728  1  0.281467  0.794629  0.476213  1
  Li  Li3729  1  0.794629  0.718533  0.523787  1
  Li  Li3730  1  0.718533  0.205371  0.476213  1
  Li  Li3731  1  0.205371  0.281467  0.523787  1
  Li  Li3732  1  0.281467  0.205371  0.523787  1
  Li  Li3733  1  0.205371  0.718533  0.476213  1
  Li  Li3734  1  0.718533  0.794629  0.523787  1
  Li  Li3735  1  0.794629  0.281467  0.476213  1
  Li  Li3736  1  0.976213  0.281467  0.294629  1
  Li  Li3737  1  0.976213  0.718533  0.705371  1
  Li  Li3738  1  0.718533  0.023787  0.294629  1
  Li  Li3739  1  0.023787  0.281467  0.705371  1
  Li  Li3740  1  0.281467  0.976213  0.294629  1
  Li  Li3741  1  0.023787  0.718533  0.294629  1
  Li  Li3742  1  0.718533  0.976213  0.705371  1
  Li  Li3743  1  0.281467  0.023787  0.705371  1
  Li  Li3744  1  0.193256  0.188996  0.985189  1
  Li  Li3745  1  0.188996  0.806744  0.014811  1
  Li  Li3746  1  0.806744  0.811004  0.985189  1
  Li  Li3747  1  0.811004  0.193256  0.014811  1
  Li  Li3748  1  0.193256  0.811004  0.014811  1
  Li  Li3749  1  0.811004  0.806744  0.985189  1
  Li  Li3750  1  0.806744  0.188996  0.014811  1
  Li  Li3751  1  0.188996  0.193256  0.985189  1
  Li  Li3752  1  0.985189  0.193256  0.188996  1
  Li  Li3753  1  0.193256  0.014811  0.811004  1
  Li  Li3754  1  0.014811  0.806744  0.188996  1
  Li  Li3755  1  0.806744  0.985189  0.811004  1
  Li  Li3756  1  0.985189  0.806744  0.811004  1
  Li  Li3757  1  0.806744  0.014811  0.188996  1
  Li  Li3758  1  0.014811  0.193256  0.811004  1
  Li  Li3759  1  0.193256  0.985189  0.188996  1
  Li  Li3760  1  0.188996  0.985189  0.193256  1
  Li  Li3761  1  0.188996  0.014811  0.806744  1
  Li  Li3762  1  0.014811  0.811004  0.193256  1
  Li  Li3763  1  0.811004  0.985189  0.806744  1
  Li  Li3764  1  0.985189  0.188996  0.193256  1
  Li  Li3765  1  0.811004  0.014811  0.193256  1
  Li  Li3766  1  0.014811  0.188996  0.806744  1
  Li  Li3767  1  0.985189  0.811004  0.806744  1
  Li  Li3768  1  0.193256  0.688996  0.485189  1
  Li  Li3769  1  0.188996  0.306744  0.514811  1
  Li  Li3770  1  0.806744  0.311004  0.485189  1
  Li  Li3771  1  0.811004  0.693256  0.514811  1
  Li  Li3772  1  0.193256  0.311004  0.514811  1
  Li  Li3773  1  0.811004  0.306744  0.485189  1
  Li  Li3774  1  0.806744  0.688996  0.514811  1
  Li  Li3775  1  0.188996  0.693256  0.485189  1
  Li  Li3776  1  0.985189  0.693256  0.688996  1
  Li  Li3777  1  0.193256  0.514811  0.311004  1
  Li  Li3778  1  0.014811  0.306744  0.688996  1
  Li  Li3779  1  0.806744  0.485189  0.311004  1
  Li  Li3780  1  0.985189  0.306744  0.311004  1
  Li  Li3781  1  0.806744  0.514811  0.688996  1
  Li  Li3782  1  0.014811  0.693256  0.311004  1
  Li  Li3783  1  0.193256  0.485189  0.688996  1
  Li  Li3784  1  0.188996  0.485189  0.693256  1
  Li  Li3785  1  0.188996  0.514811  0.306744  1
  Li  Li3786  1  0.014811  0.311004  0.693256  1
  Li  Li3787  1  0.811004  0.485189  0.306744  1
  Li  Li3788  1  0.985189  0.688996  0.693256  1
  Li  Li3789  1  0.811004  0.514811  0.693256  1
  Li  Li3790  1  0.014811  0.688996  0.306744  1
  Li  Li3791  1  0.985189  0.311004  0.306744  1
  Li  Li3792  1  0.693256  0.188996  0.485189  1
  Li  Li3793  1  0.688996  0.806744  0.514811  1
  Li  Li3794  1  0.306744  0.811004  0.485189  1
  Li  Li3795  1  0.311004  0.193256  0.514811  1
  Li  Li3796  1  0.693256  0.811004  0.514811  1
  Li  Li3797  1  0.311004  0.806744  0.485189  1
  Li  Li3798  1  0.306744  0.188996  0.514811  1
  Li  Li3799  1  0.688996  0.193256  0.485189  1
  Li  Li3800  1  0.485189  0.193256  0.688996  1
  Li  Li3801  1  0.693256  0.014811  0.311004  1
  Li  Li3802  1  0.514811  0.806744  0.688996  1
  Li  Li3803  1  0.306744  0.985189  0.311004  1
  Li  Li3804  1  0.485189  0.806744  0.311004  1
  Li  Li3805  1  0.306744  0.014811  0.688996  1
  Li  Li3806  1  0.514811  0.193256  0.311004  1
  Li  Li3807  1  0.693256  0.985189  0.688996  1
  Li  Li3808  1  0.688996  0.985189  0.693256  1
  Li  Li3809  1  0.688996  0.014811  0.306744  1
  Li  Li3810  1  0.514811  0.811004  0.693256  1
  Li  Li3811  1  0.311004  0.985189  0.306744  1
  Li  Li3812  1  0.485189  0.188996  0.693256  1
  Li  Li3813  1  0.311004  0.014811  0.693256  1
  Li  Li3814  1  0.514811  0.188996  0.306744  1
  Li  Li3815  1  0.485189  0.811004  0.306744  1
  Li  Li3816  1  0.693256  0.688996  0.985189  1
  Li  Li3817  1  0.688996  0.306744  0.014811  1
  Li  Li3818  1  0.306744  0.311004  0.985189  1
  Li  Li3819  1  0.311004  0.693256  0.014811  1
  Li  Li3820  1  0.693256  0.311004  0.014811  1
  Li  Li3821  1  0.311004  0.306744  0.985189  1
  Li  Li3822  1  0.306744  0.688996  0.014811  1
  Li  Li3823  1  0.688996  0.693256  0.985189  1
  Li  Li3824  1  0.485189  0.693256  0.188996  1
  Li  Li3825  1  0.693256  0.514811  0.811004  1
  Li  Li3826  1  0.514811  0.306744  0.188996  1
  Li  Li3827  1  0.306744  0.485189  0.811004  1
  Li  Li3828  1  0.485189  0.306744  0.811004  1
  Li  Li3829  1  0.306744  0.514811  0.188996  1
  Li  Li3830  1  0.514811  0.693256  0.811004  1
  Li  Li3831  1  0.693256  0.485189  0.188996  1
  Li  Li3832  1  0.688996  0.485189  0.193256  1
  Li  Li3833  1  0.688996  0.514811  0.806744  1
  Li  Li3834  1  0.514811  0.311004  0.193256  1
  Li  Li3835  1  0.311004  0.485189  0.806744  1
  Li  Li3836  1  0.485189  0.688996  0.193256  1
  Li  Li3837  1  0.311004  0.514811  0.193256  1
  Li  Li3838  1  0.514811  0.688996  0.806744  1
  Li  Li3839  1  0.485189  0.311004  0.806744  1
  Li  Li3840  1  0.477794  0.189033  0.692873  1
  Li  Li3841  1  0.189033  0.522206  0.307127  1
  Li  Li3842  1  0.522206  0.810967  0.692873  1
  Li  Li3843  1  0.810967  0.477794  0.307127  1
  Li  Li3844  1  0.477794  0.810967  0.307127  1
  Li  Li3845  1  0.810967  0.522206  0.692873  1
  Li  Li3846  1  0.522206  0.189033  0.307127  1
  Li  Li3847  1  0.189033  0.477794  0.692873  1
  Li  Li3848  1  0.692873  0.477794  0.189033  1
  Li  Li3849  1  0.477794  0.307127  0.810967  1
  Li  Li3850  1  0.307127  0.522206  0.189033  1
  Li  Li3851  1  0.522206  0.692873  0.810967  1
  Li  Li3852  1  0.692873  0.522206  0.810967  1
  Li  Li3853  1  0.522206  0.307127  0.189033  1
  Li  Li3854  1  0.307127  0.477794  0.810967  1
  Li  Li3855  1  0.477794  0.692873  0.189033  1
  Li  Li3856  1  0.189033  0.692873  0.477794  1
  Li  Li3857  1  0.189033  0.307127  0.522206  1
  Li  Li3858  1  0.307127  0.810967  0.477794  1
  Li  Li3859  1  0.810967  0.692873  0.522206  1
  Li  Li3860  1  0.692873  0.189033  0.477794  1
  Li  Li3861  1  0.810967  0.307127  0.477794  1
  Li  Li3862  1  0.307127  0.189033  0.522206  1
  Li  Li3863  1  0.692873  0.810967  0.522206  1
  Li  Li3864  1  0.477794  0.689033  0.192873  1
  Li  Li3865  1  0.189033  0.022206  0.807127  1
  Li  Li3866  1  0.522206  0.310967  0.192873  1
  Li  Li3867  1  0.810967  0.977794  0.807127  1
  Li  Li3868  1  0.477794  0.310967  0.807127  1
  Li  Li3869  1  0.810967  0.022206  0.192873  1
  Li  Li3870  1  0.522206  0.689033  0.807127  1
  Li  Li3871  1  0.189033  0.977794  0.192873  1
  Li  Li3872  1  0.692873  0.977794  0.689033  1
  Li  Li3873  1  0.477794  0.807127  0.310967  1
  Li  Li3874  1  0.307127  0.022206  0.689033  1
  Li  Li3875  1  0.522206  0.192873  0.310967  1
  Li  Li3876  1  0.692873  0.022206  0.310967  1
  Li  Li3877  1  0.522206  0.807127  0.689033  1
  Li  Li3878  1  0.307127  0.977794  0.310967  1
  Li  Li3879  1  0.477794  0.192873  0.689033  1
  Li  Li3880  1  0.189033  0.192873  0.977794  1
  Li  Li3881  1  0.189033  0.807127  0.022206  1
  Li  Li3882  1  0.307127  0.310967  0.977794  1
  Li  Li3883  1  0.810967  0.192873  0.022206  1
  Li  Li3884  1  0.692873  0.689033  0.977794  1
  Li  Li3885  1  0.810967  0.807127  0.977794  1
  Li  Li3886  1  0.307127  0.689033  0.022206  1
  Li  Li3887  1  0.692873  0.310967  0.022206  1
  Li  Li3888  1  0.977794  0.189033  0.192873  1
  Li  Li3889  1  0.689033  0.522206  0.807127  1
  Li  Li3890  1  0.022206  0.810967  0.192873  1
  Li  Li3891  1  0.310967  0.477794  0.807127  1
  Li  Li3892  1  0.977794  0.810967  0.807127  1
  Li  Li3893  1  0.310967  0.522206  0.192873  1
  Li  Li3894  1  0.022206  0.189033  0.807127  1
  Li  Li3895  1  0.689033  0.477794  0.192873  1
  Li  Li3896  1  0.192873  0.477794  0.689033  1
  Li  Li3897  1  0.977794  0.307127  0.310967  1
  Li  Li3898  1  0.807127  0.522206  0.689033  1
  Li  Li3899  1  0.022206  0.692873  0.310967  1
  Li  Li3900  1  0.192873  0.522206  0.310967  1
  Li  Li3901  1  0.022206  0.307127  0.689033  1
  Li  Li3902  1  0.807127  0.477794  0.310967  1
  Li  Li3903  1  0.977794  0.692873  0.689033  1
  Li  Li3904  1  0.689033  0.692873  0.977794  1
  Li  Li3905  1  0.689033  0.307127  0.022206  1
  Li  Li3906  1  0.807127  0.810967  0.977794  1
  Li  Li3907  1  0.310967  0.692873  0.022206  1
  Li  Li3908  1  0.192873  0.189033  0.977794  1
  Li  Li3909  1  0.310967  0.307127  0.977794  1
  Li  Li3910  1  0.807127  0.189033  0.022206  1
  Li  Li3911  1  0.192873  0.810967  0.022206  1
  Li  Li3912  1  0.977794  0.689033  0.692873  1
  Li  Li3913  1  0.689033  0.022206  0.307127  1
  Li  Li3914  1  0.022206  0.310967  0.692873  1
  Li  Li3915  1  0.310967  0.977794  0.307127  1
  Li  Li3916  1  0.977794  0.310967  0.307127  1
  Li  Li3917  1  0.310967  0.022206  0.692873  1
  Li  Li3918  1  0.022206  0.689033  0.307127  1
  Li  Li3919  1  0.689033  0.977794  0.692873  1
  Li  Li3920  1  0.192873  0.977794  0.189033  1
  Li  Li3921  1  0.977794  0.807127  0.810967  1
  Li  Li3922  1  0.807127  0.022206  0.189033  1
  Li  Li3923  1  0.022206  0.192873  0.810967  1
  Li  Li3924  1  0.192873  0.022206  0.810967  1
  Li  Li3925  1  0.022206  0.807127  0.189033  1
  Li  Li3926  1  0.807127  0.977794  0.810967  1
  Li  Li3927  1  0.977794  0.192873  0.189033  1
  Li  Li3928  1  0.689033  0.192873  0.477794  1
  Li  Li3929  1  0.689033  0.807127  0.522206  1
  Li  Li3930  1  0.807127  0.310967  0.477794  1
  Li  Li3931  1  0.310967  0.192873  0.522206  1
  Li  Li3932  1  0.192873  0.689033  0.477794  1
  Li  Li3933  1  0.310967  0.807127  0.477794  1
  Li  Li3934  1  0.807127  0.689033  0.522206  1
  Li  Li3935  1  0.192873  0.310967  0.522206  1
  Li  Li3936  1  0.481602  0.297919  0.819639  1
  Li  Li3937  1  0.297919  0.518398  0.180361  1
  Li  Li3938  1  0.518398  0.702081  0.819639  1
  Li  Li3939  1  0.702081  0.481602  0.180361  1
  Li  Li3940  1  0.481602  0.702081  0.180361  1
  Li  Li3941  1  0.702081  0.518398  0.819639  1
  Li  Li3942  1  0.518398  0.297919  0.180361  1
  Li  Li3943  1  0.297919  0.481602  0.819639  1
  Li  Li3944  1  0.819639  0.481602  0.297919  1
  Li  Li3945  1  0.481602  0.180361  0.702081  1
  Li  Li3946  1  0.180361  0.518398  0.297919  1
  Li  Li3947  1  0.518398  0.819639  0.702081  1
  Li  Li3948  1  0.819639  0.518398  0.702081  1
  Li  Li3949  1  0.518398  0.180361  0.297919  1
  Li  Li3950  1  0.180361  0.481602  0.702081  1
  Li  Li3951  1  0.481602  0.819639  0.297919  1
  Li  Li3952  1  0.297919  0.819639  0.481602  1
  Li  Li3953  1  0.297919  0.180361  0.518398  1
  Li  Li3954  1  0.180361  0.702081  0.481602  1
  Li  Li3955  1  0.702081  0.819639  0.518398  1
  Li  Li3956  1  0.819639  0.297919  0.481602  1
  Li  Li3957  1  0.702081  0.180361  0.481602  1
  Li  Li3958  1  0.180361  0.297919  0.518398  1
  Li  Li3959  1  0.819639  0.702081  0.518398  1
  Li  Li3960  1  0.481602  0.797919  0.319639  1
  Li  Li3961  1  0.297919  0.018398  0.680361  1
  Li  Li3962  1  0.518398  0.202081  0.319639  1
  Li  Li3963  1  0.702081  0.981602  0.680361  1
  Li  Li3964  1  0.481602  0.202081  0.680361  1
  Li  Li3965  1  0.702081  0.018398  0.319639  1
  Li  Li3966  1  0.518398  0.797919  0.680361  1
  Li  Li3967  1  0.297919  0.981602  0.319639  1
  Li  Li3968  1  0.819639  0.981602  0.797919  1
  Li  Li3969  1  0.481602  0.680361  0.202081  1
  Li  Li3970  1  0.180361  0.018398  0.797919  1
  Li  Li3971  1  0.518398  0.319639  0.202081  1
  Li  Li3972  1  0.819639  0.018398  0.202081  1
  Li  Li3973  1  0.518398  0.680361  0.797919  1
  Li  Li3974  1  0.180361  0.981602  0.202081  1
  Li  Li3975  1  0.481602  0.319639  0.797919  1
  Li  Li3976  1  0.297919  0.319639  0.981602  1
  Li  Li3977  1  0.297919  0.680361  0.018398  1
  Li  Li3978  1  0.180361  0.202081  0.981602  1
  Li  Li3979  1  0.702081  0.319639  0.018398  1
  Li  Li3980  1  0.819639  0.797919  0.981602  1
  Li  Li3981  1  0.702081  0.680361  0.981602  1
  Li  Li3982  1  0.180361  0.797919  0.018398  1
  Li  Li3983  1  0.819639  0.202081  0.018398  1
  Li  Li3984  1  0.981602  0.297919  0.319639  1
  Li  Li3985  1  0.797919  0.518398  0.680361  1
  Li  Li3986  1  0.018398  0.702081  0.319639  1
  Li  Li3987  1  0.202081  0.481602  0.680361  1
  Li  Li3988  1  0.981602  0.702081  0.680361  1
  Li  Li3989  1  0.202081  0.518398  0.319639  1
  Li  Li3990  1  0.018398  0.297919  0.680361  1
  Li  Li3991  1  0.797919  0.481602  0.319639  1
  Li  Li3992  1  0.319639  0.481602  0.797919  1
  Li  Li3993  1  0.981602  0.180361  0.202081  1
  Li  Li3994  1  0.680361  0.518398  0.797919  1
  Li  Li3995  1  0.018398  0.819639  0.202081  1
  Li  Li3996  1  0.319639  0.518398  0.202081  1
  Li  Li3997  1  0.018398  0.180361  0.797919  1
  Li  Li3998  1  0.680361  0.481602  0.202081  1
  Li  Li3999  1  0.981602  0.819639  0.797919  1
  Li  Li4000  1  0.797919  0.819639  0.981602  1
  Li  Li4001  1  0.797919  0.180361  0.018398  1
  Li  Li4002  1  0.680361  0.702081  0.981602  1
  Li  Li4003  1  0.202081  0.819639  0.018398  1
  Li  Li4004  1  0.319639  0.297919  0.981602  1
  Li  Li4005  1  0.202081  0.180361  0.981602  1
  Li  Li4006  1  0.680361  0.297919  0.018398  1
  Li  Li4007  1  0.319639  0.702081  0.018398  1
  Li  Li4008  1  0.981602  0.797919  0.819639  1
  Li  Li4009  1  0.797919  0.018398  0.180361  1
  Li  Li4010  1  0.018398  0.202081  0.819639  1
  Li  Li4011  1  0.202081  0.981602  0.180361  1
  Li  Li4012  1  0.981602  0.202081  0.180361  1
  Li  Li4013  1  0.202081  0.018398  0.819639  1
  Li  Li4014  1  0.018398  0.797919  0.180361  1
  Li  Li4015  1  0.797919  0.981602  0.819639  1
  Li  Li4016  1  0.319639  0.981602  0.297919  1
  Li  Li4017  1  0.981602  0.680361  0.702081  1
  Li  Li4018  1  0.680361  0.018398  0.297919  1
  Li  Li4019  1  0.018398  0.319639  0.702081  1
  Li  Li4020  1  0.319639  0.018398  0.702081  1
  Li  Li4021  1  0.018398  0.680361  0.297919  1
  Li  Li4022  1  0.680361  0.981602  0.702081  1
  Li  Li4023  1  0.981602  0.319639  0.297919  1
  Li  Li4024  1  0.797919  0.319639  0.481602  1
  Li  Li4025  1  0.797919  0.680361  0.518398  1
  Li  Li4026  1  0.680361  0.202081  0.481602  1
  Li  Li4027  1  0.202081  0.319639  0.518398  1
  Li  Li4028  1  0.319639  0.797919  0.481602  1
  Li  Li4029  1  0.202081  0.680361  0.481602  1
  Li  Li4030  1  0.680361  0.797919  0.518398  1
  Li  Li4031  1  0.319639  0.202081  0.518398  1
  Li  Li4032  1  0.223583  0.431976  0.573140  1
  Li  Li4033  1  0.431976  0.776417  0.426860  1
  Li  Li4034  1  0.776417  0.568024  0.573140  1
  Li  Li4035  1  0.568024  0.223583  0.426860  1
  Li  Li4036  1  0.223583  0.568024  0.426860  1
  Li  Li4037  1  0.568024  0.776417  0.573140  1
  Li  Li4038  1  0.776417  0.431976  0.426860  1
  Li  Li4039  1  0.431976  0.223583  0.573140  1
  Li  Li4040  1  0.573140  0.223583  0.431976  1
  Li  Li4041  1  0.223583  0.426860  0.568024  1
  Li  Li4042  1  0.426860  0.776417  0.431976  1
  Li  Li4043  1  0.776417  0.573140  0.568024  1
  Li  Li4044  1  0.573140  0.776417  0.568024  1
  Li  Li4045  1  0.776417  0.426860  0.431976  1
  Li  Li4046  1  0.426860  0.223583  0.568024  1
  Li  Li4047  1  0.223583  0.573140  0.431976  1
  Li  Li4048  1  0.431976  0.573140  0.223583  1
  Li  Li4049  1  0.431976  0.426860  0.776417  1
  Li  Li4050  1  0.426860  0.568024  0.223583  1
  Li  Li4051  1  0.568024  0.573140  0.776417  1
  Li  Li4052  1  0.573140  0.431976  0.223583  1
  Li  Li4053  1  0.568024  0.426860  0.223583  1
  Li  Li4054  1  0.426860  0.431976  0.776417  1
  Li  Li4055  1  0.573140  0.568024  0.776417  1
  Li  Li4056  1  0.223583  0.931976  0.073140  1
  Li  Li4057  1  0.431976  0.276417  0.926860  1
  Li  Li4058  1  0.776417  0.068024  0.073140  1
  Li  Li4059  1  0.568024  0.723583  0.926860  1
  Li  Li4060  1  0.223583  0.068024  0.926860  1
  Li  Li4061  1  0.568024  0.276417  0.073140  1
  Li  Li4062  1  0.776417  0.931976  0.926860  1
  Li  Li4063  1  0.431976  0.723583  0.073140  1
  Li  Li4064  1  0.573140  0.723583  0.931976  1
  Li  Li4065  1  0.223583  0.926860  0.068024  1
  Li  Li4066  1  0.426860  0.276417  0.931976  1
  Li  Li4067  1  0.776417  0.073140  0.068024  1
  Li  Li4068  1  0.573140  0.276417  0.068024  1
  Li  Li4069  1  0.776417  0.926860  0.931976  1
  Li  Li4070  1  0.426860  0.723583  0.068024  1
  Li  Li4071  1  0.223583  0.073140  0.931976  1
  Li  Li4072  1  0.431976  0.073140  0.723583  1
  Li  Li4073  1  0.431976  0.926860  0.276417  1
  Li  Li4074  1  0.426860  0.068024  0.723583  1
  Li  Li4075  1  0.568024  0.073140  0.276417  1
  Li  Li4076  1  0.573140  0.931976  0.723583  1
  Li  Li4077  1  0.568024  0.926860  0.723583  1
  Li  Li4078  1  0.426860  0.931976  0.276417  1
  Li  Li4079  1  0.573140  0.068024  0.276417  1
  Li  Li4080  1  0.723583  0.431976  0.073140  1
  Li  Li4081  1  0.931976  0.776417  0.926860  1
  Li  Li4082  1  0.276417  0.568024  0.073140  1
  Li  Li4083  1  0.068024  0.223583  0.926860  1
  Li  Li4084  1  0.723583  0.568024  0.926860  1
  Li  Li4085  1  0.068024  0.776417  0.073140  1
  Li  Li4086  1  0.276417  0.431976  0.926860  1
  Li  Li4087  1  0.931976  0.223583  0.073140  1
  Li  Li4088  1  0.073140  0.223583  0.931976  1
  Li  Li4089  1  0.723583  0.426860  0.068024  1
  Li  Li4090  1  0.926860  0.776417  0.931976  1
  Li  Li4091  1  0.276417  0.573140  0.068024  1
  Li  Li4092  1  0.073140  0.776417  0.068024  1
  Li  Li4093  1  0.276417  0.426860  0.931976  1
  Li  Li4094  1  0.926860  0.223583  0.068024  1
  Li  Li4095  1  0.723583  0.573140  0.931976  1
  Li  Li4096  1  0.931976  0.573140  0.723583  1
  Li  Li4097  1  0.931976  0.426860  0.276417  1
  Li  Li4098  1  0.926860  0.568024  0.723583  1
  Li  Li4099  1  0.068024  0.573140  0.276417  1
  Li  Li4100  1  0.073140  0.431976  0.723583  1
  Li  Li4101  1  0.068024  0.426860  0.723583  1
  Li  Li4102  1  0.926860  0.431976  0.276417  1
  Li  Li4103  1  0.073140  0.568024  0.276417  1
  Li  Li4104  1  0.723583  0.931976  0.573140  1
  Li  Li4105  1  0.931976  0.276417  0.426860  1
  Li  Li4106  1  0.276417  0.068024  0.573140  1
  Li  Li4107  1  0.068024  0.723583  0.426860  1
  Li  Li4108  1  0.723583  0.068024  0.426860  1
  Li  Li4109  1  0.068024  0.276417  0.573140  1
  Li  Li4110  1  0.276417  0.931976  0.426860  1
  Li  Li4111  1  0.931976  0.723583  0.573140  1
  Li  Li4112  1  0.073140  0.723583  0.431976  1
  Li  Li4113  1  0.723583  0.926860  0.568024  1
  Li  Li4114  1  0.926860  0.276417  0.431976  1
  Li  Li4115  1  0.276417  0.073140  0.568024  1
  Li  Li4116  1  0.073140  0.276417  0.568024  1
  Li  Li4117  1  0.276417  0.926860  0.431976  1
  Li  Li4118  1  0.926860  0.723583  0.568024  1
  Li  Li4119  1  0.723583  0.073140  0.431976  1
  Li  Li4120  1  0.931976  0.073140  0.223583  1
  Li  Li4121  1  0.931976  0.926860  0.776417  1
  Li  Li4122  1  0.926860  0.068024  0.223583  1
  Li  Li4123  1  0.068024  0.073140  0.776417  1
  Li  Li4124  1  0.073140  0.931976  0.223583  1
  Li  Li4125  1  0.068024  0.926860  0.223583  1
  Li  Li4126  1  0.926860  0.931976  0.776417  1
  Li  Li4127  1  0.073140  0.068024  0.776417  1
  Li  Li4128  1  0.219194  0.060314  0.916714  1
  Li  Li4129  1  0.060314  0.780806  0.083286  1
  Li  Li4130  1  0.780806  0.939686  0.916714  1
  Li  Li4131  1  0.939686  0.219194  0.083286  1
  Li  Li4132  1  0.219194  0.939686  0.083286  1
  Li  Li4133  1  0.939686  0.780806  0.916714  1
  Li  Li4134  1  0.780806  0.060314  0.083286  1
  Li  Li4135  1  0.060314  0.219194  0.916714  1
  Li  Li4136  1  0.916714  0.219194  0.060314  1
  Li  Li4137  1  0.219194  0.083286  0.939686  1
  Li  Li4138  1  0.083286  0.780806  0.060314  1
  Li  Li4139  1  0.780806  0.916714  0.939686  1
  Li  Li4140  1  0.916714  0.780806  0.939686  1
  Li  Li4141  1  0.780806  0.083286  0.060314  1
  Li  Li4142  1  0.083286  0.219194  0.939686  1
  Li  Li4143  1  0.219194  0.916714  0.060314  1
  Li  Li4144  1  0.060314  0.916714  0.219194  1
  Li  Li4145  1  0.060314  0.083286  0.780806  1
  Li  Li4146  1  0.083286  0.939686  0.219194  1
  Li  Li4147  1  0.939686  0.916714  0.780806  1
  Li  Li4148  1  0.916714  0.060314  0.219194  1
  Li  Li4149  1  0.939686  0.083286  0.219194  1
  Li  Li4150  1  0.083286  0.060314  0.780806  1
  Li  Li4151  1  0.916714  0.939686  0.780806  1
  Li  Li4152  1  0.219194  0.560314  0.416714  1
  Li  Li4153  1  0.060314  0.280806  0.583286  1
  Li  Li4154  1  0.780806  0.439686  0.416714  1
  Li  Li4155  1  0.939686  0.719194  0.583286  1
  Li  Li4156  1  0.219194  0.439686  0.583286  1
  Li  Li4157  1  0.939686  0.280806  0.416714  1
  Li  Li4158  1  0.780806  0.560314  0.583286  1
  Li  Li4159  1  0.060314  0.719194  0.416714  1
  Li  Li4160  1  0.916714  0.719194  0.560314  1
  Li  Li4161  1  0.219194  0.583286  0.439686  1
  Li  Li4162  1  0.083286  0.280806  0.560314  1
  Li  Li4163  1  0.780806  0.416714  0.439686  1
  Li  Li4164  1  0.916714  0.280806  0.439686  1
  Li  Li4165  1  0.780806  0.583286  0.560314  1
  Li  Li4166  1  0.083286  0.719194  0.439686  1
  Li  Li4167  1  0.219194  0.416714  0.560314  1
  Li  Li4168  1  0.060314  0.416714  0.719194  1
  Li  Li4169  1  0.060314  0.583286  0.280806  1
  Li  Li4170  1  0.083286  0.439686  0.719194  1
  Li  Li4171  1  0.939686  0.416714  0.280806  1
  Li  Li4172  1  0.916714  0.560314  0.719194  1
  Li  Li4173  1  0.939686  0.583286  0.719194  1
  Li  Li4174  1  0.083286  0.560314  0.280806  1
  Li  Li4175  1  0.916714  0.439686  0.280806  1
  Li  Li4176  1  0.719194  0.060314  0.416714  1
  Li  Li4177  1  0.560314  0.780806  0.583286  1
  Li  Li4178  1  0.280806  0.939686  0.416714  1
  Li  Li4179  1  0.439686  0.219194  0.583286  1
  Li  Li4180  1  0.719194  0.939686  0.583286  1
  Li  Li4181  1  0.439686  0.780806  0.416714  1
  Li  Li4182  1  0.280806  0.060314  0.583286  1
  Li  Li4183  1  0.560314  0.219194  0.416714  1
  Li  Li4184  1  0.416714  0.219194  0.560314  1
  Li  Li4185  1  0.719194  0.083286  0.439686  1
  Li  Li4186  1  0.583286  0.780806  0.560314  1
  Li  Li4187  1  0.280806  0.916714  0.439686  1
  Li  Li4188  1  0.416714  0.780806  0.439686  1
  Li  Li4189  1  0.280806  0.083286  0.560314  1
  Li  Li4190  1  0.583286  0.219194  0.439686  1
  Li  Li4191  1  0.719194  0.916714  0.560314  1
  Li  Li4192  1  0.560314  0.916714  0.719194  1
  Li  Li4193  1  0.560314  0.083286  0.280806  1
  Li  Li4194  1  0.583286  0.939686  0.719194  1
  Li  Li4195  1  0.439686  0.916714  0.280806  1
  Li  Li4196  1  0.416714  0.060314  0.719194  1
  Li  Li4197  1  0.439686  0.083286  0.719194  1
  Li  Li4198  1  0.583286  0.060314  0.280806  1
  Li  Li4199  1  0.416714  0.939686  0.280806  1
  Li  Li4200  1  0.719194  0.560314  0.916714  1
  Li  Li4201  1  0.560314  0.280806  0.083286  1
  Li  Li4202  1  0.280806  0.439686  0.916714  1
  Li  Li4203  1  0.439686  0.719194  0.083286  1
  Li  Li4204  1  0.719194  0.439686  0.083286  1
  Li  Li4205  1  0.439686  0.280806  0.916714  1
  Li  Li4206  1  0.280806  0.560314  0.083286  1
  Li  Li4207  1  0.560314  0.719194  0.916714  1
  Li  Li4208  1  0.416714  0.719194  0.060314  1
  Li  Li4209  1  0.719194  0.583286  0.939686  1
  Li  Li4210  1  0.583286  0.280806  0.060314  1
  Li  Li4211  1  0.280806  0.416714  0.939686  1
  Li  Li4212  1  0.416714  0.280806  0.939686  1
  Li  Li4213  1  0.280806  0.583286  0.060314  1
  Li  Li4214  1  0.583286  0.719194  0.939686  1
  Li  Li4215  1  0.719194  0.416714  0.060314  1
  Li  Li4216  1  0.560314  0.416714  0.219194  1
  Li  Li4217  1  0.560314  0.583286  0.780806  1
  Li  Li4218  1  0.583286  0.439686  0.219194  1
  Li  Li4219  1  0.439686  0.416714  0.780806  1
  Li  Li4220  1  0.416714  0.560314  0.219194  1
  Li  Li4221  1  0.439686  0.583286  0.219194  1
  Li  Li4222  1  0.583286  0.560314  0.780806  1
  Li  Li4223  1  0.416714  0.439686  0.780806  1
  Li  Li4224  1  0.215182  0.015145  0.811303  1
  Li  Li4225  1  0.015145  0.784818  0.188697  1
  Li  Li4226  1  0.784818  0.984855  0.811303  1
  Li  Li4227  1  0.984855  0.215182  0.188697  1
  Li  Li4228  1  0.215182  0.984855  0.188697  1
  Li  Li4229  1  0.984855  0.784818  0.811303  1
  Li  Li4230  1  0.784818  0.015145  0.188697  1
  Li  Li4231  1  0.015145  0.215182  0.811303  1
  Li  Li4232  1  0.811303  0.215182  0.015145  1
  Li  Li4233  1  0.215182  0.188697  0.984855  1
  Li  Li4234  1  0.188697  0.784818  0.015145  1
  Li  Li4235  1  0.784818  0.811303  0.984855  1
  Li  Li4236  1  0.811303  0.784818  0.984855  1
  Li  Li4237  1  0.784818  0.188697  0.015145  1
  Li  Li4238  1  0.188697  0.215182  0.984855  1
  Li  Li4239  1  0.215182  0.811303  0.015145  1
  Li  Li4240  1  0.015145  0.811303  0.215182  1
  Li  Li4241  1  0.015145  0.188697  0.784818  1
  Li  Li4242  1  0.188697  0.984855  0.215182  1
  Li  Li4243  1  0.984855  0.811303  0.784818  1
  Li  Li4244  1  0.811303  0.015145  0.215182  1
  Li  Li4245  1  0.984855  0.188697  0.215182  1
  Li  Li4246  1  0.188697  0.015145  0.784818  1
  Li  Li4247  1  0.811303  0.984855  0.784818  1
  Li  Li4248  1  0.215182  0.515145  0.311303  1
  Li  Li4249  1  0.015145  0.284818  0.688697  1
  Li  Li4250  1  0.784818  0.484855  0.311303  1
  Li  Li4251  1  0.984855  0.715182  0.688697  1
  Li  Li4252  1  0.215182  0.484855  0.688697  1
  Li  Li4253  1  0.984855  0.284818  0.311303  1
  Li  Li4254  1  0.784818  0.515145  0.688697  1
  Li  Li4255  1  0.015145  0.715182  0.311303  1
  Li  Li4256  1  0.811303  0.715182  0.515145  1
  Li  Li4257  1  0.215182  0.688697  0.484855  1
  Li  Li4258  1  0.188697  0.284818  0.515145  1
  Li  Li4259  1  0.784818  0.311303  0.484855  1
  Li  Li4260  1  0.811303  0.284818  0.484855  1
  Li  Li4261  1  0.784818  0.688697  0.515145  1
  Li  Li4262  1  0.188697  0.715182  0.484855  1
  Li  Li4263  1  0.215182  0.311303  0.515145  1
  Li  Li4264  1  0.015145  0.311303  0.715182  1
  Li  Li4265  1  0.015145  0.688697  0.284818  1
  Li  Li4266  1  0.188697  0.484855  0.715182  1
  Li  Li4267  1  0.984855  0.311303  0.284818  1
  Li  Li4268  1  0.811303  0.515145  0.715182  1
  Li  Li4269  1  0.984855  0.688697  0.715182  1
  Li  Li4270  1  0.188697  0.515145  0.284818  1
  Li  Li4271  1  0.811303  0.484855  0.284818  1
  Li  Li4272  1  0.715182  0.015145  0.311303  1
  Li  Li4273  1  0.515145  0.784818  0.688697  1
  Li  Li4274  1  0.284818  0.984855  0.311303  1
  Li  Li4275  1  0.484855  0.215182  0.688697  1
  Li  Li4276  1  0.715182  0.984855  0.688697  1
  Li  Li4277  1  0.484855  0.784818  0.311303  1
  Li  Li4278  1  0.284818  0.015145  0.688697  1
  Li  Li4279  1  0.515145  0.215182  0.311303  1
  Li  Li4280  1  0.311303  0.215182  0.515145  1
  Li  Li4281  1  0.715182  0.188697  0.484855  1
  Li  Li4282  1  0.688697  0.784818  0.515145  1
  Li  Li4283  1  0.284818  0.811303  0.484855  1
  Li  Li4284  1  0.311303  0.784818  0.484855  1
  Li  Li4285  1  0.284818  0.188697  0.515145  1
  Li  Li4286  1  0.688697  0.215182  0.484855  1
  Li  Li4287  1  0.715182  0.811303  0.515145  1
  Li  Li4288  1  0.515145  0.811303  0.715182  1
  Li  Li4289  1  0.515145  0.188697  0.284818  1
  Li  Li4290  1  0.688697  0.984855  0.715182  1
  Li  Li4291  1  0.484855  0.811303  0.284818  1
  Li  Li4292  1  0.311303  0.015145  0.715182  1
  Li  Li4293  1  0.484855  0.188697  0.715182  1
  Li  Li4294  1  0.688697  0.015145  0.284818  1
  Li  Li4295  1  0.311303  0.984855  0.284818  1
  Li  Li4296  1  0.715182  0.515145  0.811303  1
  Li  Li4297  1  0.515145  0.284818  0.188697  1
  Li  Li4298  1  0.284818  0.484855  0.811303  1
  Li  Li4299  1  0.484855  0.715182  0.188697  1
  Li  Li4300  1  0.715182  0.484855  0.188697  1
  Li  Li4301  1  0.484855  0.284818  0.811303  1
  Li  Li4302  1  0.284818  0.515145  0.188697  1
  Li  Li4303  1  0.515145  0.715182  0.811303  1
  Li  Li4304  1  0.311303  0.715182  0.015145  1
  Li  Li4305  1  0.715182  0.688697  0.984855  1
  Li  Li4306  1  0.688697  0.284818  0.015145  1
  Li  Li4307  1  0.284818  0.311303  0.984855  1
  Li  Li4308  1  0.311303  0.284818  0.984855  1
  Li  Li4309  1  0.284818  0.688697  0.015145  1
  Li  Li4310  1  0.688697  0.715182  0.984855  1
  Li  Li4311  1  0.715182  0.311303  0.015145  1
  Li  Li4312  1  0.515145  0.311303  0.215182  1
  Li  Li4313  1  0.515145  0.688697  0.784818  1
  Li  Li4314  1  0.688697  0.484855  0.215182  1
  Li  Li4315  1  0.484855  0.311303  0.784818  1
  Li  Li4316  1  0.311303  0.515145  0.215182  1
  Li  Li4317  1  0.484855  0.688697  0.215182  1
  Li  Li4318  1  0.688697  0.515145  0.784818  1
  Li  Li4319  1  0.311303  0.484855  0.784818  1
  Li  Li4320  1  0.486017  0.206779  0.679263  1
  Li  Li4321  1  0.206779  0.513983  0.320737  1
  Li  Li4322  1  0.513983  0.793221  0.679263  1
  Li  Li4323  1  0.793221  0.486017  0.320737  1
  Li  Li4324  1  0.486017  0.793221  0.320737  1
  Li  Li4325  1  0.793221  0.513983  0.679263  1
  Li  Li4326  1  0.513983  0.206779  0.320737  1
  Li  Li4327  1  0.206779  0.486017  0.679263  1
  Li  Li4328  1  0.679263  0.486017  0.206779  1
  Li  Li4329  1  0.486017  0.320737  0.793221  1
  Li  Li4330  1  0.320737  0.513983  0.206779  1
  Li  Li4331  1  0.513983  0.679263  0.793221  1
  Li  Li4332  1  0.679263  0.513983  0.793221  1
  Li  Li4333  1  0.513983  0.320737  0.206779  1
  Li  Li4334  1  0.320737  0.486017  0.793221  1
  Li  Li4335  1  0.486017  0.679263  0.206779  1
  Li  Li4336  1  0.206779  0.679263  0.486017  1
  Li  Li4337  1  0.206779  0.320737  0.513983  1
  Li  Li4338  1  0.320737  0.793221  0.486017  1
  Li  Li4339  1  0.793221  0.679263  0.513983  1
  Li  Li4340  1  0.679263  0.206779  0.486017  1
  Li  Li4341  1  0.793221  0.320737  0.486017  1
  Li  Li4342  1  0.320737  0.206779  0.513983  1
  Li  Li4343  1  0.679263  0.793221  0.513983  1
  Li  Li4344  1  0.486017  0.706779  0.179263  1
  Li  Li4345  1  0.206779  0.013983  0.820737  1
  Li  Li4346  1  0.513983  0.293221  0.179263  1
  Li  Li4347  1  0.793221  0.986017  0.820737  1
  Li  Li4348  1  0.486017  0.293221  0.820737  1
  Li  Li4349  1  0.793221  0.013983  0.179263  1
  Li  Li4350  1  0.513983  0.706779  0.820737  1
  Li  Li4351  1  0.206779  0.986017  0.179263  1
  Li  Li4352  1  0.679263  0.986017  0.706779  1
  Li  Li4353  1  0.486017  0.820737  0.293221  1
  Li  Li4354  1  0.320737  0.013983  0.706779  1
  Li  Li4355  1  0.513983  0.179263  0.293221  1
  Li  Li4356  1  0.679263  0.013983  0.293221  1
  Li  Li4357  1  0.513983  0.820737  0.706779  1
  Li  Li4358  1  0.320737  0.986017  0.293221  1
  Li  Li4359  1  0.486017  0.179263  0.706779  1
  Li  Li4360  1  0.206779  0.179263  0.986017  1
  Li  Li4361  1  0.206779  0.820737  0.013983  1
  Li  Li4362  1  0.320737  0.293221  0.986017  1
  Li  Li4363  1  0.793221  0.179263  0.013983  1
  Li  Li4364  1  0.679263  0.706779  0.986017  1
  Li  Li4365  1  0.793221  0.820737  0.986017  1
  Li  Li4366  1  0.320737  0.706779  0.013983  1
  Li  Li4367  1  0.679263  0.293221  0.013983  1
  Li  Li4368  1  0.986017  0.206779  0.179263  1
  Li  Li4369  1  0.706779  0.513983  0.820737  1
  Li  Li4370  1  0.013983  0.793221  0.179263  1
  Li  Li4371  1  0.293221  0.486017  0.820737  1
  Li  Li4372  1  0.986017  0.793221  0.820737  1
  Li  Li4373  1  0.293221  0.513983  0.179263  1
  Li  Li4374  1  0.013983  0.206779  0.820737  1
  Li  Li4375  1  0.706779  0.486017  0.179263  1
  Li  Li4376  1  0.179263  0.486017  0.706779  1
  Li  Li4377  1  0.986017  0.320737  0.293221  1
  Li  Li4378  1  0.820737  0.513983  0.706779  1
  Li  Li4379  1  0.013983  0.679263  0.293221  1
  Li  Li4380  1  0.179263  0.513983  0.293221  1
  Li  Li4381  1  0.013983  0.320737  0.706779  1
  Li  Li4382  1  0.820737  0.486017  0.293221  1
  Li  Li4383  1  0.986017  0.679263  0.706779  1
  Li  Li4384  1  0.706779  0.679263  0.986017  1
  Li  Li4385  1  0.706779  0.320737  0.013983  1
  Li  Li4386  1  0.820737  0.793221  0.986017  1
  Li  Li4387  1  0.293221  0.679263  0.013983  1
  Li  Li4388  1  0.179263  0.206779  0.986017  1
  Li  Li4389  1  0.293221  0.320737  0.986017  1
  Li  Li4390  1  0.820737  0.206779  0.013983  1
  Li  Li4391  1  0.179263  0.793221  0.013983  1
  Li  Li4392  1  0.986017  0.706779  0.679263  1
  Li  Li4393  1  0.706779  0.013983  0.320737  1
  Li  Li4394  1  0.013983  0.293221  0.679263  1
  Li  Li4395  1  0.293221  0.986017  0.320737  1
  Li  Li4396  1  0.986017  0.293221  0.320737  1
  Li  Li4397  1  0.293221  0.013983  0.679263  1
  Li  Li4398  1  0.013983  0.706779  0.320737  1
  Li  Li4399  1  0.706779  0.986017  0.679263  1
  Li  Li4400  1  0.179263  0.986017  0.206779  1
  Li  Li4401  1  0.986017  0.820737  0.793221  1
  Li  Li4402  1  0.820737  0.013983  0.206779  1
  Li  Li4403  1  0.013983  0.179263  0.793221  1
  Li  Li4404  1  0.179263  0.013983  0.793221  1
  Li  Li4405  1  0.013983  0.820737  0.206779  1
  Li  Li4406  1  0.820737  0.986017  0.793221  1
  Li  Li4407  1  0.986017  0.179263  0.206779  1
  Li  Li4408  1  0.706779  0.179263  0.486017  1
  Li  Li4409  1  0.706779  0.820737  0.513983  1
  Li  Li4410  1  0.820737  0.293221  0.486017  1
  Li  Li4411  1  0.293221  0.179263  0.513983  1
  Li  Li4412  1  0.179263  0.706779  0.486017  1
  Li  Li4413  1  0.293221  0.820737  0.486017  1
  Li  Li4414  1  0.820737  0.706779  0.513983  1
  Li  Li4415  1  0.179263  0.293221  0.513983  1
  Li  Li4416  1  0.468413  0.206058  0.714465  1
  Li  Li4417  1  0.206058  0.531587  0.285535  1
  Li  Li4418  1  0.531587  0.793942  0.714465  1
  Li  Li4419  1  0.793942  0.468413  0.285535  1
  Li  Li4420  1  0.468413  0.793942  0.285535  1
  Li  Li4421  1  0.793942  0.531587  0.714465  1
  Li  Li4422  1  0.531587  0.206058  0.285535  1
  Li  Li4423  1  0.206058  0.468413  0.714465  1
  Li  Li4424  1  0.714465  0.468413  0.206058  1
  Li  Li4425  1  0.468413  0.285535  0.793942  1
  Li  Li4426  1  0.285535  0.531587  0.206058  1
  Li  Li4427  1  0.531587  0.714465  0.793942  1
  Li  Li4428  1  0.714465  0.531587  0.793942  1
  Li  Li4429  1  0.531587  0.285535  0.206058  1
  Li  Li4430  1  0.285535  0.468413  0.793942  1
  Li  Li4431  1  0.468413  0.714465  0.206058  1
  Li  Li4432  1  0.206058  0.714465  0.468413  1
  Li  Li4433  1  0.206058  0.285535  0.531587  1
  Li  Li4434  1  0.285535  0.793942  0.468413  1
  Li  Li4435  1  0.793942  0.714465  0.531587  1
  Li  Li4436  1  0.714465  0.206058  0.468413  1
  Li  Li4437  1  0.793942  0.285535  0.468413  1
  Li  Li4438  1  0.285535  0.206058  0.531587  1
  Li  Li4439  1  0.714465  0.793942  0.531587  1
  Li  Li4440  1  0.468413  0.706058  0.214465  1
  Li  Li4441  1  0.206058  0.031587  0.785535  1
  Li  Li4442  1  0.531587  0.293942  0.214465  1
  Li  Li4443  1  0.793942  0.968413  0.785535  1
  Li  Li4444  1  0.468413  0.293942  0.785535  1
  Li  Li4445  1  0.793942  0.031587  0.214465  1
  Li  Li4446  1  0.531587  0.706058  0.785535  1
  Li  Li4447  1  0.206058  0.968413  0.214465  1
  Li  Li4448  1  0.714465  0.968413  0.706058  1
  Li  Li4449  1  0.468413  0.785535  0.293942  1
  Li  Li4450  1  0.285535  0.031587  0.706058  1
  Li  Li4451  1  0.531587  0.214465  0.293942  1
  Li  Li4452  1  0.714465  0.031587  0.293942  1
  Li  Li4453  1  0.531587  0.785535  0.706058  1
  Li  Li4454  1  0.285535  0.968413  0.293942  1
  Li  Li4455  1  0.468413  0.214465  0.706058  1
  Li  Li4456  1  0.206058  0.214465  0.968413  1
  Li  Li4457  1  0.206058  0.785535  0.031587  1
  Li  Li4458  1  0.285535  0.293942  0.968413  1
  Li  Li4459  1  0.793942  0.214465  0.031587  1
  Li  Li4460  1  0.714465  0.706058  0.968413  1
  Li  Li4461  1  0.793942  0.785535  0.968413  1
  Li  Li4462  1  0.285535  0.706058  0.031587  1
  Li  Li4463  1  0.714465  0.293942  0.031587  1
  Li  Li4464  1  0.968413  0.206058  0.214465  1
  Li  Li4465  1  0.706058  0.531587  0.785535  1
  Li  Li4466  1  0.031587  0.793942  0.214465  1
  Li  Li4467  1  0.293942  0.468413  0.785535  1
  Li  Li4468  1  0.968413  0.793942  0.785535  1
  Li  Li4469  1  0.293942  0.531587  0.214465  1
  Li  Li4470  1  0.031587  0.206058  0.785535  1
  Li  Li4471  1  0.706058  0.468413  0.214465  1
  Li  Li4472  1  0.214465  0.468413  0.706058  1
  Li  Li4473  1  0.968413  0.285535  0.293942  1
  Li  Li4474  1  0.785535  0.531587  0.706058  1
  Li  Li4475  1  0.031587  0.714465  0.293942  1
  Li  Li4476  1  0.214465  0.531587  0.293942  1
  Li  Li4477  1  0.031587  0.285535  0.706058  1
  Li  Li4478  1  0.785535  0.468413  0.293942  1
  Li  Li4479  1  0.968413  0.714465  0.706058  1
  Li  Li4480  1  0.706058  0.714465  0.968413  1
  Li  Li4481  1  0.706058  0.285535  0.031587  1
  Li  Li4482  1  0.785535  0.793942  0.968413  1
  Li  Li4483  1  0.293942  0.714465  0.031587  1
  Li  Li4484  1  0.214465  0.206058  0.968413  1
  Li  Li4485  1  0.293942  0.285535  0.968413  1
  Li  Li4486  1  0.785535  0.206058  0.031587  1
  Li  Li4487  1  0.214465  0.793942  0.031587  1
  Li  Li4488  1  0.968413  0.706058  0.714465  1
  Li  Li4489  1  0.706058  0.031587  0.285535  1
  Li  Li4490  1  0.031587  0.293942  0.714465  1
  Li  Li4491  1  0.293942  0.968413  0.285535  1
  Li  Li4492  1  0.968413  0.293942  0.285535  1
  Li  Li4493  1  0.293942  0.031587  0.714465  1
  Li  Li4494  1  0.031587  0.706058  0.285535  1
  Li  Li4495  1  0.706058  0.968413  0.714465  1
  Li  Li4496  1  0.214465  0.968413  0.206058  1
  Li  Li4497  1  0.968413  0.785535  0.793942  1
  Li  Li4498  1  0.785535  0.031587  0.206058  1
  Li  Li4499  1  0.031587  0.214465  0.793942  1
  Li  Li4500  1  0.214465  0.031587  0.793942  1
  Li  Li4501  1  0.031587  0.785535  0.206058  1
  Li  Li4502  1  0.785535  0.968413  0.793942  1
  Li  Li4503  1  0.968413  0.214465  0.206058  1
  Li  Li4504  1  0.706058  0.214465  0.468413  1
  Li  Li4505  1  0.706058  0.785535  0.531587  1
  Li  Li4506  1  0.785535  0.293942  0.468413  1
  Li  Li4507  1  0.293942  0.214465  0.531587  1
  Li  Li4508  1  0.214465  0.706058  0.468413  1
  Li  Li4509  1  0.293942  0.785535  0.468413  1
  Li  Li4510  1  0.785535  0.706058  0.531587  1
  Li  Li4511  1  0.214465  0.293942  0.531587  1
  Li  Li4512  1  0.245046  0.250647  0.530268  1
  Li  Li4513  1  0.250647  0.754954  0.469732  1
  Li  Li4514  1  0.754954  0.749353  0.530268  1
  Li  Li4515  1  0.749353  0.245046  0.469732  1
  Li  Li4516  1  0.245046  0.749353  0.469732  1
  Li  Li4517  1  0.749353  0.754954  0.530268  1
  Li  Li4518  1  0.754954  0.250647  0.469732  1
  Li  Li4519  1  0.250647  0.245046  0.530268  1
  Li  Li4520  1  0.530268  0.245046  0.250647  1
  Li  Li4521  1  0.245046  0.469732  0.749353  1
  Li  Li4522  1  0.469732  0.754954  0.250647  1
  Li  Li4523  1  0.754954  0.530268  0.749353  1
  Li  Li4524  1  0.530268  0.754954  0.749353  1
  Li  Li4525  1  0.754954  0.469732  0.250647  1
  Li  Li4526  1  0.469732  0.245046  0.749353  1
  Li  Li4527  1  0.245046  0.530268  0.250647  1
  Li  Li4528  1  0.250647  0.530268  0.245046  1
  Li  Li4529  1  0.250647  0.469732  0.754954  1
  Li  Li4530  1  0.469732  0.749353  0.245046  1
  Li  Li4531  1  0.749353  0.530268  0.754954  1
  Li  Li4532  1  0.530268  0.250647  0.245046  1
  Li  Li4533  1  0.749353  0.469732  0.245046  1
  Li  Li4534  1  0.469732  0.250647  0.754954  1
  Li  Li4535  1  0.530268  0.749353  0.754954  1
  Li  Li4536  1  0.245046  0.750647  0.030268  1
  Li  Li4537  1  0.250647  0.254954  0.969732  1
  Li  Li4538  1  0.754954  0.249353  0.030268  1
  Li  Li4539  1  0.749353  0.745046  0.969732  1
  Li  Li4540  1  0.245046  0.249353  0.969732  1
  Li  Li4541  1  0.749353  0.254954  0.030268  1
  Li  Li4542  1  0.754954  0.750647  0.969732  1
  Li  Li4543  1  0.250647  0.745046  0.030268  1
  Li  Li4544  1  0.530268  0.745046  0.750647  1
  Li  Li4545  1  0.245046  0.969732  0.249353  1
  Li  Li4546  1  0.469732  0.254954  0.750647  1
  Li  Li4547  1  0.754954  0.030268  0.249353  1
  Li  Li4548  1  0.530268  0.254954  0.249353  1
  Li  Li4549  1  0.754954  0.969732  0.750647  1
  Li  Li4550  1  0.469732  0.745046  0.249353  1
  Li  Li4551  1  0.245046  0.030268  0.750647  1
  Li  Li4552  1  0.250647  0.030268  0.745046  1
  Li  Li4553  1  0.250647  0.969732  0.254954  1
  Li  Li4554  1  0.469732  0.249353  0.745046  1
  Li  Li4555  1  0.749353  0.030268  0.254954  1
  Li  Li4556  1  0.530268  0.750647  0.745046  1
  Li  Li4557  1  0.749353  0.969732  0.745046  1
  Li  Li4558  1  0.469732  0.750647  0.254954  1
  Li  Li4559  1  0.530268  0.249353  0.254954  1
  Li  Li4560  1  0.745046  0.250647  0.030268  1
  Li  Li4561  1  0.750647  0.754954  0.969732  1
  Li  Li4562  1  0.254954  0.749353  0.030268  1
  Li  Li4563  1  0.249353  0.245046  0.969732  1
  Li  Li4564  1  0.745046  0.749353  0.969732  1
  Li  Li4565  1  0.249353  0.754954  0.030268  1
  Li  Li4566  1  0.254954  0.250647  0.969732  1
  Li  Li4567  1  0.750647  0.245046  0.030268  1
  Li  Li4568  1  0.030268  0.245046  0.750647  1
  Li  Li4569  1  0.745046  0.469732  0.249353  1
  Li  Li4570  1  0.969732  0.754954  0.750647  1
  Li  Li4571  1  0.254954  0.530268  0.249353  1
  Li  Li4572  1  0.030268  0.754954  0.249353  1
  Li  Li4573  1  0.254954  0.469732  0.750647  1
  Li  Li4574  1  0.969732  0.245046  0.249353  1
  Li  Li4575  1  0.745046  0.530268  0.750647  1
  Li  Li4576  1  0.750647  0.530268  0.745046  1
  Li  Li4577  1  0.750647  0.469732  0.254954  1
  Li  Li4578  1  0.969732  0.749353  0.745046  1
  Li  Li4579  1  0.249353  0.530268  0.254954  1
  Li  Li4580  1  0.030268  0.250647  0.745046  1
  Li  Li4581  1  0.249353  0.469732  0.745046  1
  Li  Li4582  1  0.969732  0.250647  0.254954  1
  Li  Li4583  1  0.030268  0.749353  0.254954  1
  Li  Li4584  1  0.745046  0.750647  0.530268  1
  Li  Li4585  1  0.750647  0.254954  0.469732  1
  Li  Li4586  1  0.254954  0.249353  0.530268  1
  Li  Li4587  1  0.249353  0.745046  0.469732  1
  Li  Li4588  1  0.745046  0.249353  0.469732  1
  Li  Li4589  1  0.249353  0.254954  0.530268  1
  Li  Li4590  1  0.254954  0.750647  0.469732  1
  Li  Li4591  1  0.750647  0.745046  0.530268  1
  Li  Li4592  1  0.030268  0.745046  0.250647  1
  Li  Li4593  1  0.745046  0.969732  0.749353  1
  Li  Li4594  1  0.969732  0.254954  0.250647  1
  Li  Li4595  1  0.254954  0.030268  0.749353  1
  Li  Li4596  1  0.030268  0.254954  0.749353  1
  Li  Li4597  1  0.254954  0.969732  0.250647  1
  Li  Li4598  1  0.969732  0.745046  0.749353  1
  Li  Li4599  1  0.745046  0.030268  0.250647  1
  Li  Li4600  1  0.750647  0.030268  0.245046  1
  Li  Li4601  1  0.750647  0.969732  0.754954  1
  Li  Li4602  1  0.969732  0.249353  0.245046  1
  Li  Li4603  1  0.249353  0.030268  0.754954  1
  Li  Li4604  1  0.030268  0.750647  0.245046  1
  Li  Li4605  1  0.249353  0.969732  0.245046  1
  Li  Li4606  1  0.969732  0.750647  0.754954  1
  Li  Li4607  1  0.030268  0.249353  0.754954  1
  Li  Li4608  1  0.276286  0.720708  0.042484  1
  Li  Li4609  1  0.720708  0.723714  0.957516  1
  Li  Li4610  1  0.723714  0.279292  0.042484  1
  Li  Li4611  1  0.279292  0.276286  0.957516  1
  Li  Li4612  1  0.276286  0.279292  0.957516  1
  Li  Li4613  1  0.279292  0.723714  0.042484  1
  Li  Li4614  1  0.723714  0.720708  0.957516  1
  Li  Li4615  1  0.720708  0.276286  0.042484  1
  Li  Li4616  1  0.042484  0.276286  0.720708  1
  Li  Li4617  1  0.276286  0.957516  0.279292  1
  Li  Li4618  1  0.957516  0.723714  0.720708  1
  Li  Li4619  1  0.723714  0.042484  0.279292  1
  Li  Li4620  1  0.042484  0.723714  0.279292  1
  Li  Li4621  1  0.723714  0.957516  0.720708  1
  Li  Li4622  1  0.957516  0.276286  0.279292  1
  Li  Li4623  1  0.276286  0.042484  0.720708  1
  Li  Li4624  1  0.720708  0.042484  0.276286  1
  Li  Li4625  1  0.720708  0.957516  0.723714  1
  Li  Li4626  1  0.957516  0.279292  0.276286  1
  Li  Li4627  1  0.279292  0.042484  0.723714  1
  Li  Li4628  1  0.042484  0.720708  0.276286  1
  Li  Li4629  1  0.279292  0.957516  0.276286  1
  Li  Li4630  1  0.957516  0.720708  0.723714  1
  Li  Li4631  1  0.042484  0.279292  0.723714  1
  Li  Li4632  1  0.276286  0.220708  0.542484  1
  Li  Li4633  1  0.720708  0.223714  0.457516  1
  Li  Li4634  1  0.723714  0.779292  0.542484  1
  Li  Li4635  1  0.279292  0.776286  0.457516  1
  Li  Li4636  1  0.276286  0.779292  0.457516  1
  Li  Li4637  1  0.279292  0.223714  0.542484  1
  Li  Li4638  1  0.723714  0.220708  0.457516  1
  Li  Li4639  1  0.720708  0.776286  0.542484  1
  Li  Li4640  1  0.042484  0.776286  0.220708  1
  Li  Li4641  1  0.276286  0.457516  0.779292  1
  Li  Li4642  1  0.957516  0.223714  0.220708  1
  Li  Li4643  1  0.723714  0.542484  0.779292  1
  Li  Li4644  1  0.042484  0.223714  0.779292  1
  Li  Li4645  1  0.723714  0.457516  0.220708  1
  Li  Li4646  1  0.957516  0.776286  0.779292  1
  Li  Li4647  1  0.276286  0.542484  0.220708  1
  Li  Li4648  1  0.720708  0.542484  0.776286  1
  Li  Li4649  1  0.720708  0.457516  0.223714  1
  Li  Li4650  1  0.957516  0.779292  0.776286  1
  Li  Li4651  1  0.279292  0.542484  0.223714  1
  Li  Li4652  1  0.042484  0.220708  0.776286  1
  Li  Li4653  1  0.279292  0.457516  0.776286  1
  Li  Li4654  1  0.957516  0.220708  0.223714  1
  Li  Li4655  1  0.042484  0.779292  0.223714  1
  Li  Li4656  1  0.776286  0.720708  0.542484  1
  Li  Li4657  1  0.220708  0.723714  0.457516  1
  Li  Li4658  1  0.223714  0.279292  0.542484  1
  Li  Li4659  1  0.779292  0.276286  0.457516  1
  Li  Li4660  1  0.776286  0.279292  0.457516  1
  Li  Li4661  1  0.779292  0.723714  0.542484  1
  Li  Li4662  1  0.223714  0.720708  0.457516  1
  Li  Li4663  1  0.220708  0.276286  0.542484  1
  Li  Li4664  1  0.542484  0.276286  0.220708  1
  Li  Li4665  1  0.776286  0.957516  0.779292  1
  Li  Li4666  1  0.457516  0.723714  0.220708  1
  Li  Li4667  1  0.223714  0.042484  0.779292  1
  Li  Li4668  1  0.542484  0.723714  0.779292  1
  Li  Li4669  1  0.223714  0.957516  0.220708  1
  Li  Li4670  1  0.457516  0.276286  0.779292  1
  Li  Li4671  1  0.776286  0.042484  0.220708  1
  Li  Li4672  1  0.220708  0.042484  0.776286  1
  Li  Li4673  1  0.220708  0.957516  0.223714  1
  Li  Li4674  1  0.457516  0.279292  0.776286  1
  Li  Li4675  1  0.779292  0.042484  0.223714  1
  Li  Li4676  1  0.542484  0.720708  0.776286  1
  Li  Li4677  1  0.779292  0.957516  0.776286  1
  Li  Li4678  1  0.457516  0.720708  0.223714  1
  Li  Li4679  1  0.542484  0.279292  0.223714  1
  Li  Li4680  1  0.776286  0.220708  0.042484  1
  Li  Li4681  1  0.220708  0.223714  0.957516  1
  Li  Li4682  1  0.223714  0.779292  0.042484  1
  Li  Li4683  1  0.779292  0.776286  0.957516  1
  Li  Li4684  1  0.776286  0.779292  0.957516  1
  Li  Li4685  1  0.779292  0.223714  0.042484  1
  Li  Li4686  1  0.223714  0.220708  0.957516  1
  Li  Li4687  1  0.220708  0.776286  0.042484  1
  Li  Li4688  1  0.542484  0.776286  0.720708  1
  Li  Li4689  1  0.776286  0.457516  0.279292  1
  Li  Li4690  1  0.457516  0.223714  0.720708  1
  Li  Li4691  1  0.223714  0.542484  0.279292  1
  Li  Li4692  1  0.542484  0.223714  0.279292  1
  Li  Li4693  1  0.223714  0.457516  0.720708  1
  Li  Li4694  1  0.457516  0.776286  0.279292  1
  Li  Li4695  1  0.776286  0.542484  0.720708  1
  Li  Li4696  1  0.220708  0.542484  0.276286  1
  Li  Li4697  1  0.220708  0.457516  0.723714  1
  Li  Li4698  1  0.457516  0.779292  0.276286  1
  Li  Li4699  1  0.779292  0.542484  0.723714  1
  Li  Li4700  1  0.542484  0.220708  0.276286  1
  Li  Li4701  1  0.779292  0.457516  0.276286  1
  Li  Li4702  1  0.457516  0.220708  0.723714  1
  Li  Li4703  1  0.542484  0.779292  0.723714  1
  Li  Li4704  1  0.186685  0.808082  0.025957  1
  Li  Li4705  1  0.808082  0.813315  0.974043  1
  Li  Li4706  1  0.813315  0.191918  0.025957  1
  Li  Li4707  1  0.191918  0.186685  0.974043  1
  Li  Li4708  1  0.186685  0.191918  0.974043  1
  Li  Li4709  1  0.191918  0.813315  0.025957  1
  Li  Li4710  1  0.813315  0.808082  0.974043  1
  Li  Li4711  1  0.808082  0.186685  0.025957  1
  Li  Li4712  1  0.025957  0.186685  0.808082  1
  Li  Li4713  1  0.186685  0.974043  0.191918  1
  Li  Li4714  1  0.974043  0.813315  0.808082  1
  Li  Li4715  1  0.813315  0.025957  0.191918  1
  Li  Li4716  1  0.025957  0.813315  0.191918  1
  Li  Li4717  1  0.813315  0.974043  0.808082  1
  Li  Li4718  1  0.974043  0.186685  0.191918  1
  Li  Li4719  1  0.186685  0.025957  0.808082  1
  Li  Li4720  1  0.808082  0.025957  0.186685  1
  Li  Li4721  1  0.808082  0.974043  0.813315  1
  Li  Li4722  1  0.974043  0.191918  0.186685  1
  Li  Li4723  1  0.191918  0.025957  0.813315  1
  Li  Li4724  1  0.025957  0.808082  0.186685  1
  Li  Li4725  1  0.191918  0.974043  0.186685  1
  Li  Li4726  1  0.974043  0.808082  0.813315  1
  Li  Li4727  1  0.025957  0.191918  0.813315  1
  Li  Li4728  1  0.186685  0.308082  0.525957  1
  Li  Li4729  1  0.808082  0.313315  0.474043  1
  Li  Li4730  1  0.813315  0.691918  0.525957  1
  Li  Li4731  1  0.191918  0.686685  0.474043  1
  Li  Li4732  1  0.186685  0.691918  0.474043  1
  Li  Li4733  1  0.191918  0.313315  0.525957  1
  Li  Li4734  1  0.813315  0.308082  0.474043  1
  Li  Li4735  1  0.808082  0.686685  0.525957  1
  Li  Li4736  1  0.025957  0.686685  0.308082  1
  Li  Li4737  1  0.186685  0.474043  0.691918  1
  Li  Li4738  1  0.974043  0.313315  0.308082  1
  Li  Li4739  1  0.813315  0.525957  0.691918  1
  Li  Li4740  1  0.025957  0.313315  0.691918  1
  Li  Li4741  1  0.813315  0.474043  0.308082  1
  Li  Li4742  1  0.974043  0.686685  0.691918  1
  Li  Li4743  1  0.186685  0.525957  0.308082  1
  Li  Li4744  1  0.808082  0.525957  0.686685  1
  Li  Li4745  1  0.808082  0.474043  0.313315  1
  Li  Li4746  1  0.974043  0.691918  0.686685  1
  Li  Li4747  1  0.191918  0.525957  0.313315  1
  Li  Li4748  1  0.025957  0.308082  0.686685  1
  Li  Li4749  1  0.191918  0.474043  0.686685  1
  Li  Li4750  1  0.974043  0.308082  0.313315  1
  Li  Li4751  1  0.025957  0.691918  0.313315  1
  Li  Li4752  1  0.686685  0.808082  0.525957  1
  Li  Li4753  1  0.308082  0.813315  0.474043  1
  Li  Li4754  1  0.313315  0.191918  0.525957  1
  Li  Li4755  1  0.691918  0.186685  0.474043  1
  Li  Li4756  1  0.686685  0.191918  0.474043  1
  Li  Li4757  1  0.691918  0.813315  0.525957  1
  Li  Li4758  1  0.313315  0.808082  0.474043  1
  Li  Li4759  1  0.308082  0.186685  0.525957  1
  Li  Li4760  1  0.525957  0.186685  0.308082  1
  Li  Li4761  1  0.686685  0.974043  0.691918  1
  Li  Li4762  1  0.474043  0.813315  0.308082  1
  Li  Li4763  1  0.313315  0.025957  0.691918  1
  Li  Li4764  1  0.525957  0.813315  0.691918  1
  Li  Li4765  1  0.313315  0.974043  0.308082  1
  Li  Li4766  1  0.474043  0.186685  0.691918  1
  Li  Li4767  1  0.686685  0.025957  0.308082  1
  Li  Li4768  1  0.308082  0.025957  0.686685  1
  Li  Li4769  1  0.308082  0.974043  0.313315  1
  Li  Li4770  1  0.474043  0.191918  0.686685  1
  Li  Li4771  1  0.691918  0.025957  0.313315  1
  Li  Li4772  1  0.525957  0.808082  0.686685  1
  Li  Li4773  1  0.691918  0.974043  0.686685  1
  Li  Li4774  1  0.474043  0.808082  0.313315  1
  Li  Li4775  1  0.525957  0.191918  0.313315  1
  Li  Li4776  1  0.686685  0.308082  0.025957  1
  Li  Li4777  1  0.308082  0.313315  0.974043  1
  Li  Li4778  1  0.313315  0.691918  0.025957  1
  Li  Li4779  1  0.691918  0.686685  0.974043  1
  Li  Li4780  1  0.686685  0.691918  0.974043  1
  Li  Li4781  1  0.691918  0.313315  0.025957  1
  Li  Li4782  1  0.313315  0.308082  0.974043  1
  Li  Li4783  1  0.308082  0.686685  0.025957  1
  Li  Li4784  1  0.525957  0.686685  0.808082  1
  Li  Li4785  1  0.686685  0.474043  0.191918  1
  Li  Li4786  1  0.474043  0.313315  0.808082  1
  Li  Li4787  1  0.313315  0.525957  0.191918  1
  Li  Li4788  1  0.525957  0.313315  0.191918  1
  Li  Li4789  1  0.313315  0.474043  0.808082  1
  Li  Li4790  1  0.474043  0.686685  0.191918  1
  Li  Li4791  1  0.686685  0.525957  0.808082  1
  Li  Li4792  1  0.308082  0.525957  0.186685  1
  Li  Li4793  1  0.308082  0.474043  0.813315  1
  Li  Li4794  1  0.474043  0.691918  0.186685  1
  Li  Li4795  1  0.691918  0.525957  0.813315  1
  Li  Li4796  1  0.525957  0.308082  0.186685  1
  Li  Li4797  1  0.691918  0.474043  0.186685  1
  Li  Li4798  1  0.474043  0.308082  0.813315  1
  Li  Li4799  1  0.525957  0.691918  0.813315  1
  Li  Li4800  1  0.291374  0.678392  0.008575  1
  Li  Li4801  1  0.678392  0.708626  0.991425  1
  Li  Li4802  1  0.708626  0.321608  0.008575  1
  Li  Li4803  1  0.321608  0.291374  0.991425  1
  Li  Li4804  1  0.291374  0.321608  0.991425  1
  Li  Li4805  1  0.321608  0.708626  0.008575  1
  Li  Li4806  1  0.708626  0.678392  0.991425  1
  Li  Li4807  1  0.678392  0.291374  0.008575  1
  Li  Li4808  1  0.008575  0.291374  0.678392  1
  Li  Li4809  1  0.291374  0.991425  0.321608  1
  Li  Li4810  1  0.991425  0.708626  0.678392  1
  Li  Li4811  1  0.708626  0.008575  0.321608  1
  Li  Li4812  1  0.008575  0.708626  0.321608  1
  Li  Li4813  1  0.708626  0.991425  0.678392  1
  Li  Li4814  1  0.991425  0.291374  0.321608  1
  Li  Li4815  1  0.291374  0.008575  0.678392  1
  Li  Li4816  1  0.678392  0.008575  0.291374  1
  Li  Li4817  1  0.678392  0.991425  0.708626  1
  Li  Li4818  1  0.991425  0.321608  0.291374  1
  Li  Li4819  1  0.321608  0.008575  0.708626  1
  Li  Li4820  1  0.008575  0.678392  0.291374  1
  Li  Li4821  1  0.321608  0.991425  0.291374  1
  Li  Li4822  1  0.991425  0.678392  0.708626  1
  Li  Li4823  1  0.008575  0.321608  0.708626  1
  Li  Li4824  1  0.291374  0.178392  0.508575  1
  Li  Li4825  1  0.678392  0.208626  0.491425  1
  Li  Li4826  1  0.708626  0.821608  0.508575  1
  Li  Li4827  1  0.321608  0.791374  0.491425  1
  Li  Li4828  1  0.291374  0.821608  0.491425  1
  Li  Li4829  1  0.321608  0.208626  0.508575  1
  Li  Li4830  1  0.708626  0.178392  0.491425  1
  Li  Li4831  1  0.678392  0.791374  0.508575  1
  Li  Li4832  1  0.008575  0.791374  0.178392  1
  Li  Li4833  1  0.291374  0.491425  0.821608  1
  Li  Li4834  1  0.991425  0.208626  0.178392  1
  Li  Li4835  1  0.708626  0.508575  0.821608  1
  Li  Li4836  1  0.008575  0.208626  0.821608  1
  Li  Li4837  1  0.708626  0.491425  0.178392  1
  Li  Li4838  1  0.991425  0.791374  0.821608  1
  Li  Li4839  1  0.291374  0.508575  0.178392  1
  Li  Li4840  1  0.678392  0.508575  0.791374  1
  Li  Li4841  1  0.678392  0.491425  0.208626  1
  Li  Li4842  1  0.991425  0.821608  0.791374  1
  Li  Li4843  1  0.321608  0.508575  0.208626  1
  Li  Li4844  1  0.008575  0.178392  0.791374  1
  Li  Li4845  1  0.321608  0.491425  0.791374  1
  Li  Li4846  1  0.991425  0.178392  0.208626  1
  Li  Li4847  1  0.008575  0.821608  0.208626  1
  Li  Li4848  1  0.791374  0.678392  0.508575  1
  Li  Li4849  1  0.178392  0.708626  0.491425  1
  Li  Li4850  1  0.208626  0.321608  0.508575  1
  Li  Li4851  1  0.821608  0.291374  0.491425  1
  Li  Li4852  1  0.791374  0.321608  0.491425  1
  Li  Li4853  1  0.821608  0.708626  0.508575  1
  Li  Li4854  1  0.208626  0.678392  0.491425  1
  Li  Li4855  1  0.178392  0.291374  0.508575  1
  Li  Li4856  1  0.508575  0.291374  0.178392  1
  Li  Li4857  1  0.791374  0.991425  0.821608  1
  Li  Li4858  1  0.491425  0.708626  0.178392  1
  Li  Li4859  1  0.208626  0.008575  0.821608  1
  Li  Li4860  1  0.508575  0.708626  0.821608  1
  Li  Li4861  1  0.208626  0.991425  0.178392  1
  Li  Li4862  1  0.491425  0.291374  0.821608  1
  Li  Li4863  1  0.791374  0.008575  0.178392  1
  Li  Li4864  1  0.178392  0.008575  0.791374  1
  Li  Li4865  1  0.178392  0.991425  0.208626  1
  Li  Li4866  1  0.491425  0.321608  0.791374  1
  Li  Li4867  1  0.821608  0.008575  0.208626  1
  Li  Li4868  1  0.508575  0.678392  0.791374  1
  Li  Li4869  1  0.821608  0.991425  0.791374  1
  Li  Li4870  1  0.491425  0.678392  0.208626  1
  Li  Li4871  1  0.508575  0.321608  0.208626  1
  Li  Li4872  1  0.791374  0.178392  0.008575  1
  Li  Li4873  1  0.178392  0.208626  0.991425  1
  Li  Li4874  1  0.208626  0.821608  0.008575  1
  Li  Li4875  1  0.821608  0.791374  0.991425  1
  Li  Li4876  1  0.791374  0.821608  0.991425  1
  Li  Li4877  1  0.821608  0.208626  0.008575  1
  Li  Li4878  1  0.208626  0.178392  0.991425  1
  Li  Li4879  1  0.178392  0.791374  0.008575  1
  Li  Li4880  1  0.508575  0.791374  0.678392  1
  Li  Li4881  1  0.791374  0.491425  0.321608  1
  Li  Li4882  1  0.491425  0.208626  0.678392  1
  Li  Li4883  1  0.208626  0.508575  0.321608  1
  Li  Li4884  1  0.508575  0.208626  0.321608  1
  Li  Li4885  1  0.208626  0.491425  0.678392  1
  Li  Li4886  1  0.491425  0.791374  0.321608  1
  Li  Li4887  1  0.791374  0.508575  0.678392  1
  Li  Li4888  1  0.178392  0.508575  0.291374  1
  Li  Li4889  1  0.178392  0.491425  0.708626  1
  Li  Li4890  1  0.491425  0.821608  0.291374  1
  Li  Li4891  1  0.821608  0.508575  0.708626  1
  Li  Li4892  1  0.508575  0.178392  0.291374  1
  Li  Li4893  1  0.821608  0.491425  0.291374  1
  Li  Li4894  1  0.491425  0.178392  0.708626  1
  Li  Li4895  1  0.508575  0.821608  0.708626  1
  Li  Li4896  1  0.088805  0.762335  0.068178  1
  Li  Li4897  1  0.762335  0.911195  0.931822  1
  Li  Li4898  1  0.911195  0.237665  0.068178  1
  Li  Li4899  1  0.237665  0.088805  0.931822  1
  Li  Li4900  1  0.088805  0.237665  0.931822  1
  Li  Li4901  1  0.237665  0.911195  0.068178  1
  Li  Li4902  1  0.911195  0.762335  0.931822  1
  Li  Li4903  1  0.762335  0.088805  0.068178  1
  Li  Li4904  1  0.068178  0.088805  0.762335  1
  Li  Li4905  1  0.088805  0.931822  0.237665  1
  Li  Li4906  1  0.931822  0.911195  0.762335  1
  Li  Li4907  1  0.911195  0.068178  0.237665  1
  Li  Li4908  1  0.068178  0.911195  0.237665  1
  Li  Li4909  1  0.911195  0.931822  0.762335  1
  Li  Li4910  1  0.931822  0.088805  0.237665  1
  Li  Li4911  1  0.088805  0.068178  0.762335  1
  Li  Li4912  1  0.762335  0.068178  0.088805  1
  Li  Li4913  1  0.762335  0.931822  0.911195  1
  Li  Li4914  1  0.931822  0.237665  0.088805  1
  Li  Li4915  1  0.237665  0.068178  0.911195  1
  Li  Li4916  1  0.068178  0.762335  0.088805  1
  Li  Li4917  1  0.237665  0.931822  0.088805  1
  Li  Li4918  1  0.931822  0.762335  0.911195  1
  Li  Li4919  1  0.068178  0.237665  0.911195  1
  Li  Li4920  1  0.088805  0.262335  0.568178  1
  Li  Li4921  1  0.762335  0.411195  0.431822  1
  Li  Li4922  1  0.911195  0.737665  0.568178  1
  Li  Li4923  1  0.237665  0.588805  0.431822  1
  Li  Li4924  1  0.088805  0.737665  0.431822  1
  Li  Li4925  1  0.237665  0.411195  0.568178  1
  Li  Li4926  1  0.911195  0.262335  0.431822  1
  Li  Li4927  1  0.762335  0.588805  0.568178  1
  Li  Li4928  1  0.068178  0.588805  0.262335  1
  Li  Li4929  1  0.088805  0.431822  0.737665  1
  Li  Li4930  1  0.931822  0.411195  0.262335  1
  Li  Li4931  1  0.911195  0.568178  0.737665  1
  Li  Li4932  1  0.068178  0.411195  0.737665  1
  Li  Li4933  1  0.911195  0.431822  0.262335  1
  Li  Li4934  1  0.931822  0.588805  0.737665  1
  Li  Li4935  1  0.088805  0.568178  0.262335  1
  Li  Li4936  1  0.762335  0.568178  0.588805  1
  Li  Li4937  1  0.762335  0.431822  0.411195  1
  Li  Li4938  1  0.931822  0.737665  0.588805  1
  Li  Li4939  1  0.237665  0.568178  0.411195  1
  Li  Li4940  1  0.068178  0.262335  0.588805  1
  Li  Li4941  1  0.237665  0.431822  0.588805  1
  Li  Li4942  1  0.931822  0.262335  0.411195  1
  Li  Li4943  1  0.068178  0.737665  0.411195  1
  Li  Li4944  1  0.588805  0.762335  0.568178  1
  Li  Li4945  1  0.262335  0.911195  0.431822  1
  Li  Li4946  1  0.411195  0.237665  0.568178  1
  Li  Li4947  1  0.737665  0.088805  0.431822  1
  Li  Li4948  1  0.588805  0.237665  0.431822  1
  Li  Li4949  1  0.737665  0.911195  0.568178  1
  Li  Li4950  1  0.411195  0.762335  0.431822  1
  Li  Li4951  1  0.262335  0.088805  0.568178  1
  Li  Li4952  1  0.568178  0.088805  0.262335  1
  Li  Li4953  1  0.588805  0.931822  0.737665  1
  Li  Li4954  1  0.431822  0.911195  0.262335  1
  Li  Li4955  1  0.411195  0.068178  0.737665  1
  Li  Li4956  1  0.568178  0.911195  0.737665  1
  Li  Li4957  1  0.411195  0.931822  0.262335  1
  Li  Li4958  1  0.431822  0.088805  0.737665  1
  Li  Li4959  1  0.588805  0.068178  0.262335  1
  Li  Li4960  1  0.262335  0.068178  0.588805  1
  Li  Li4961  1  0.262335  0.931822  0.411195  1
  Li  Li4962  1  0.431822  0.237665  0.588805  1
  Li  Li4963  1  0.737665  0.068178  0.411195  1
  Li  Li4964  1  0.568178  0.762335  0.588805  1
  Li  Li4965  1  0.737665  0.931822  0.588805  1
  Li  Li4966  1  0.431822  0.762335  0.411195  1
  Li  Li4967  1  0.568178  0.237665  0.411195  1
  Li  Li4968  1  0.588805  0.262335  0.068178  1
  Li  Li4969  1  0.262335  0.411195  0.931822  1
  Li  Li4970  1  0.411195  0.737665  0.068178  1
  Li  Li4971  1  0.737665  0.588805  0.931822  1
  Li  Li4972  1  0.588805  0.737665  0.931822  1
  Li  Li4973  1  0.737665  0.411195  0.068178  1
  Li  Li4974  1  0.411195  0.262335  0.931822  1
  Li  Li4975  1  0.262335  0.588805  0.068178  1
  Li  Li4976  1  0.568178  0.588805  0.762335  1
  Li  Li4977  1  0.588805  0.431822  0.237665  1
  Li  Li4978  1  0.431822  0.411195  0.762335  1
  Li  Li4979  1  0.411195  0.568178  0.237665  1
  Li  Li4980  1  0.568178  0.411195  0.237665  1
  Li  Li4981  1  0.411195  0.431822  0.762335  1
  Li  Li4982  1  0.431822  0.588805  0.237665  1
  Li  Li4983  1  0.588805  0.568178  0.762335  1
  Li  Li4984  1  0.262335  0.568178  0.088805  1
  Li  Li4985  1  0.262335  0.431822  0.911195  1
  Li  Li4986  1  0.431822  0.737665  0.088805  1
  Li  Li4987  1  0.737665  0.568178  0.911195  1
  Li  Li4988  1  0.568178  0.262335  0.088805  1
  Li  Li4989  1  0.737665  0.431822  0.088805  1
  Li  Li4990  1  0.431822  0.262335  0.911195  1
  Li  Li4991  1  0.568178  0.737665  0.911195  1
  Li  Li4992  1  0.320358  0.521483  0.215755  1
  Li  Li4993  1  0.521483  0.679642  0.784245  1
  Li  Li4994  1  0.679642  0.478517  0.215755  1
  Li  Li4995  1  0.478517  0.320358  0.784245  1
  Li  Li4996  1  0.320358  0.478517  0.784245  1
  Li  Li4997  1  0.478517  0.679642  0.215755  1
  Li  Li4998  1  0.679642  0.521483  0.784245  1
  Li  Li4999  1  0.521483  0.320358  0.215755  1
  Li  Li5000  1  0.215755  0.320358  0.521483  1
  Li  Li5001  1  0.320358  0.784245  0.478517  1
  Li  Li5002  1  0.784245  0.679642  0.521483  1
  Li  Li5003  1  0.679642  0.215755  0.478517  1
  Li  Li5004  1  0.215755  0.679642  0.478517  1
  Li  Li5005  1  0.679642  0.784245  0.521483  1
  Li  Li5006  1  0.784245  0.320358  0.478517  1
  Li  Li5007  1  0.320358  0.215755  0.521483  1
  Li  Li5008  1  0.521483  0.215755  0.320358  1
  Li  Li5009  1  0.521483  0.784245  0.679642  1
  Li  Li5010  1  0.784245  0.478517  0.320358  1
  Li  Li5011  1  0.478517  0.215755  0.679642  1
  Li  Li5012  1  0.215755  0.521483  0.320358  1
  Li  Li5013  1  0.478517  0.784245  0.320358  1
  Li  Li5014  1  0.784245  0.521483  0.679642  1
  Li  Li5015  1  0.215755  0.478517  0.679642  1
  Li  Li5016  1  0.320358  0.021483  0.715755  1
  Li  Li5017  1  0.521483  0.179642  0.284245  1
  Li  Li5018  1  0.679642  0.978517  0.715755  1
  Li  Li5019  1  0.478517  0.820358  0.284245  1
  Li  Li5020  1  0.320358  0.978517  0.284245  1
  Li  Li5021  1  0.478517  0.179642  0.715755  1
  Li  Li5022  1  0.679642  0.021483  0.284245  1
  Li  Li5023  1  0.521483  0.820358  0.715755  1
  Li  Li5024  1  0.215755  0.820358  0.021483  1
  Li  Li5025  1  0.320358  0.284245  0.978517  1
  Li  Li5026  1  0.784245  0.179642  0.021483  1
  Li  Li5027  1  0.679642  0.715755  0.978517  1
  Li  Li5028  1  0.215755  0.179642  0.978517  1
  Li  Li5029  1  0.679642  0.284245  0.021483  1
  Li  Li5030  1  0.784245  0.820358  0.978517  1
  Li  Li5031  1  0.320358  0.715755  0.021483  1
  Li  Li5032  1  0.521483  0.715755  0.820358  1
  Li  Li5033  1  0.521483  0.284245  0.179642  1
  Li  Li5034  1  0.784245  0.978517  0.820358  1
  Li  Li5035  1  0.478517  0.715755  0.179642  1
  Li  Li5036  1  0.215755  0.021483  0.820358  1
  Li  Li5037  1  0.478517  0.284245  0.820358  1
  Li  Li5038  1  0.784245  0.021483  0.179642  1
  Li  Li5039  1  0.215755  0.978517  0.179642  1
  Li  Li5040  1  0.820358  0.521483  0.715755  1
  Li  Li5041  1  0.021483  0.679642  0.284245  1
  Li  Li5042  1  0.179642  0.478517  0.715755  1
  Li  Li5043  1  0.978517  0.320358  0.284245  1
  Li  Li5044  1  0.820358  0.478517  0.284245  1
  Li  Li5045  1  0.978517  0.679642  0.715755  1
  Li  Li5046  1  0.179642  0.521483  0.284245  1
  Li  Li5047  1  0.021483  0.320358  0.715755  1
  Li  Li5048  1  0.715755  0.320358  0.021483  1
  Li  Li5049  1  0.820358  0.784245  0.978517  1
  Li  Li5050  1  0.284245  0.679642  0.021483  1
  Li  Li5051  1  0.179642  0.215755  0.978517  1
  Li  Li5052  1  0.715755  0.679642  0.978517  1
  Li  Li5053  1  0.179642  0.784245  0.021483  1
  Li  Li5054  1  0.284245  0.320358  0.978517  1
  Li  Li5055  1  0.820358  0.215755  0.021483  1
  Li  Li5056  1  0.021483  0.215755  0.820358  1
  Li  Li5057  1  0.021483  0.784245  0.179642  1
  Li  Li5058  1  0.284245  0.478517  0.820358  1
  Li  Li5059  1  0.978517  0.215755  0.179642  1
  Li  Li5060  1  0.715755  0.521483  0.820358  1
  Li  Li5061  1  0.978517  0.784245  0.820358  1
  Li  Li5062  1  0.284245  0.521483  0.179642  1
  Li  Li5063  1  0.715755  0.478517  0.179642  1
  Li  Li5064  1  0.820358  0.021483  0.215755  1
  Li  Li5065  1  0.021483  0.179642  0.784245  1
  Li  Li5066  1  0.179642  0.978517  0.215755  1
  Li  Li5067  1  0.978517  0.820358  0.784245  1
  Li  Li5068  1  0.820358  0.978517  0.784245  1
  Li  Li5069  1  0.978517  0.179642  0.215755  1
  Li  Li5070  1  0.179642  0.021483  0.784245  1
  Li  Li5071  1  0.021483  0.820358  0.215755  1
  Li  Li5072  1  0.715755  0.820358  0.521483  1
  Li  Li5073  1  0.820358  0.284245  0.478517  1
  Li  Li5074  1  0.284245  0.179642  0.521483  1
  Li  Li5075  1  0.179642  0.715755  0.478517  1
  Li  Li5076  1  0.715755  0.179642  0.478517  1
  Li  Li5077  1  0.179642  0.284245  0.521483  1
  Li  Li5078  1  0.284245  0.820358  0.478517  1
  Li  Li5079  1  0.820358  0.715755  0.521483  1
  Li  Li5080  1  0.021483  0.715755  0.320358  1
  Li  Li5081  1  0.021483  0.284245  0.679642  1
  Li  Li5082  1  0.284245  0.978517  0.320358  1
  Li  Li5083  1  0.978517  0.715755  0.679642  1
  Li  Li5084  1  0.715755  0.021483  0.320358  1
  Li  Li5085  1  0.978517  0.284245  0.320358  1
  Li  Li5086  1  0.284245  0.021483  0.679642  1
  Li  Li5087  1  0.715755  0.978517  0.679642  1
  Li  Li5088  1  0.111581  0.728387  0.428540  1
  Li  Li5089  1  0.728387  0.888419  0.571460  1
  Li  Li5090  1  0.888419  0.271613  0.428540  1
  Li  Li5091  1  0.271613  0.111581  0.571460  1
  Li  Li5092  1  0.111581  0.271613  0.571460  1
  Li  Li5093  1  0.271613  0.888419  0.428540  1
  Li  Li5094  1  0.888419  0.728387  0.571460  1
  Li  Li5095  1  0.728387  0.111581  0.428540  1
  Li  Li5096  1  0.428540  0.111581  0.728387  1
  Li  Li5097  1  0.111581  0.571460  0.271613  1
  Li  Li5098  1  0.571460  0.888419  0.728387  1
  Li  Li5099  1  0.888419  0.428540  0.271613  1
  Li  Li5100  1  0.428540  0.888419  0.271613  1
  Li  Li5101  1  0.888419  0.571460  0.728387  1
  Li  Li5102  1  0.571460  0.111581  0.271613  1
  Li  Li5103  1  0.111581  0.428540  0.728387  1
  Li  Li5104  1  0.728387  0.428540  0.111581  1
  Li  Li5105  1  0.728387  0.571460  0.888419  1
  Li  Li5106  1  0.571460  0.271613  0.111581  1
  Li  Li5107  1  0.271613  0.428540  0.888419  1
  Li  Li5108  1  0.428540  0.728387  0.111581  1
  Li  Li5109  1  0.271613  0.571460  0.111581  1
  Li  Li5110  1  0.571460  0.728387  0.888419  1
  Li  Li5111  1  0.428540  0.271613  0.888419  1
  Li  Li5112  1  0.111581  0.228387  0.928540  1
  Li  Li5113  1  0.728387  0.388419  0.071460  1
  Li  Li5114  1  0.888419  0.771613  0.928540  1
  Li  Li5115  1  0.271613  0.611581  0.071460  1
  Li  Li5116  1  0.111581  0.771613  0.071460  1
  Li  Li5117  1  0.271613  0.388419  0.928540  1
  Li  Li5118  1  0.888419  0.228387  0.071460  1
  Li  Li5119  1  0.728387  0.611581  0.928540  1
  Li  Li5120  1  0.428540  0.611581  0.228387  1
  Li  Li5121  1  0.111581  0.071460  0.771613  1
  Li  Li5122  1  0.571460  0.388419  0.228387  1
  Li  Li5123  1  0.888419  0.928540  0.771613  1
  Li  Li5124  1  0.428540  0.388419  0.771613  1
  Li  Li5125  1  0.888419  0.071460  0.228387  1
  Li  Li5126  1  0.571460  0.611581  0.771613  1
  Li  Li5127  1  0.111581  0.928540  0.228387  1
  Li  Li5128  1  0.728387  0.928540  0.611581  1
  Li  Li5129  1  0.728387  0.071460  0.388419  1
  Li  Li5130  1  0.571460  0.771613  0.611581  1
  Li  Li5131  1  0.271613  0.928540  0.388419  1
  Li  Li5132  1  0.428540  0.228387  0.611581  1
  Li  Li5133  1  0.271613  0.071460  0.611581  1
  Li  Li5134  1  0.571460  0.228387  0.388419  1
  Li  Li5135  1  0.428540  0.771613  0.388419  1
  Li  Li5136  1  0.611581  0.728387  0.928540  1
  Li  Li5137  1  0.228387  0.888419  0.071460  1
  Li  Li5138  1  0.388419  0.271613  0.928540  1
  Li  Li5139  1  0.771613  0.111581  0.071460  1
  Li  Li5140  1  0.611581  0.271613  0.071460  1
  Li  Li5141  1  0.771613  0.888419  0.928540  1
  Li  Li5142  1  0.388419  0.728387  0.071460  1
  Li  Li5143  1  0.228387  0.111581  0.928540  1
  Li  Li5144  1  0.928540  0.111581  0.228387  1
  Li  Li5145  1  0.611581  0.571460  0.771613  1
  Li  Li5146  1  0.071460  0.888419  0.228387  1
  Li  Li5147  1  0.388419  0.428540  0.771613  1
  Li  Li5148  1  0.928540  0.888419  0.771613  1
  Li  Li5149  1  0.388419  0.571460  0.228387  1
  Li  Li5150  1  0.071460  0.111581  0.771613  1
  Li  Li5151  1  0.611581  0.428540  0.228387  1
  Li  Li5152  1  0.228387  0.428540  0.611581  1
  Li  Li5153  1  0.228387  0.571460  0.388419  1
  Li  Li5154  1  0.071460  0.271613  0.611581  1
  Li  Li5155  1  0.771613  0.428540  0.388419  1
  Li  Li5156  1  0.928540  0.728387  0.611581  1
  Li  Li5157  1  0.771613  0.571460  0.611581  1
  Li  Li5158  1  0.071460  0.728387  0.388419  1
  Li  Li5159  1  0.928540  0.271613  0.388419  1
  Li  Li5160  1  0.611581  0.228387  0.428540  1
  Li  Li5161  1  0.228387  0.388419  0.571460  1
  Li  Li5162  1  0.388419  0.771613  0.428540  1
  Li  Li5163  1  0.771613  0.611581  0.571460  1
  Li  Li5164  1  0.611581  0.771613  0.571460  1
  Li  Li5165  1  0.771613  0.388419  0.428540  1
  Li  Li5166  1  0.388419  0.228387  0.571460  1
  Li  Li5167  1  0.228387  0.611581  0.428540  1
  Li  Li5168  1  0.928540  0.611581  0.728387  1
  Li  Li5169  1  0.611581  0.071460  0.271613  1
  Li  Li5170  1  0.071460  0.388419  0.728387  1
  Li  Li5171  1  0.388419  0.928540  0.271613  1
  Li  Li5172  1  0.928540  0.388419  0.271613  1
  Li  Li5173  1  0.388419  0.071460  0.728387  1
  Li  Li5174  1  0.071460  0.611581  0.271613  1
  Li  Li5175  1  0.611581  0.928540  0.728387  1
  Li  Li5176  1  0.228387  0.928540  0.111581  1
  Li  Li5177  1  0.228387  0.071460  0.888419  1
  Li  Li5178  1  0.071460  0.771613  0.111581  1
  Li  Li5179  1  0.771613  0.928540  0.888419  1
  Li  Li5180  1  0.928540  0.228387  0.111581  1
  Li  Li5181  1  0.771613  0.071460  0.111581  1
  Li  Li5182  1  0.071460  0.228387  0.888419  1
  Li  Li5183  1  0.928540  0.771613  0.888419  1
  Li  Li5184  1  0.207415  0.587484  0.415314  1
  Li  Li5185  1  0.587484  0.792585  0.584686  1
  Li  Li5186  1  0.792585  0.412516  0.415314  1
  Li  Li5187  1  0.412516  0.207415  0.584686  1
  Li  Li5188  1  0.207415  0.412516  0.584686  1
  Li  Li5189  1  0.412516  0.792585  0.415314  1
  Li  Li5190  1  0.792585  0.587484  0.584686  1
  Li  Li5191  1  0.587484  0.207415  0.415314  1
  Li  Li5192  1  0.415314  0.207415  0.587484  1
  Li  Li5193  1  0.207415  0.584686  0.412516  1
  Li  Li5194  1  0.584686  0.792585  0.587484  1
  Li  Li5195  1  0.792585  0.415314  0.412516  1
  Li  Li5196  1  0.415314  0.792585  0.412516  1
  Li  Li5197  1  0.792585  0.584686  0.587484  1
  Li  Li5198  1  0.584686  0.207415  0.412516  1
  Li  Li5199  1  0.207415  0.415314  0.587484  1
  Li  Li5200  1  0.587484  0.415314  0.207415  1
  Li  Li5201  1  0.587484  0.584686  0.792585  1
  Li  Li5202  1  0.584686  0.412516  0.207415  1
  Li  Li5203  1  0.412516  0.415314  0.792585  1
  Li  Li5204  1  0.415314  0.587484  0.207415  1
  Li  Li5205  1  0.412516  0.584686  0.207415  1
  Li  Li5206  1  0.584686  0.587484  0.792585  1
  Li  Li5207  1  0.415314  0.412516  0.792585  1
  Li  Li5208  1  0.207415  0.087484  0.915314  1
  Li  Li5209  1  0.587484  0.292585  0.084686  1
  Li  Li5210  1  0.792585  0.912516  0.915314  1
  Li  Li5211  1  0.412516  0.707415  0.084686  1
  Li  Li5212  1  0.207415  0.912516  0.084686  1
  Li  Li5213  1  0.412516  0.292585  0.915314  1
  Li  Li5214  1  0.792585  0.087484  0.084686  1
  Li  Li5215  1  0.587484  0.707415  0.915314  1
  Li  Li5216  1  0.415314  0.707415  0.087484  1
  Li  Li5217  1  0.207415  0.084686  0.912516  1
  Li  Li5218  1  0.584686  0.292585  0.087484  1
  Li  Li5219  1  0.792585  0.915314  0.912516  1
  Li  Li5220  1  0.415314  0.292585  0.912516  1
  Li  Li5221  1  0.792585  0.084686  0.087484  1
  Li  Li5222  1  0.584686  0.707415  0.912516  1
  Li  Li5223  1  0.207415  0.915314  0.087484  1
  Li  Li5224  1  0.587484  0.915314  0.707415  1
  Li  Li5225  1  0.587484  0.084686  0.292585  1
  Li  Li5226  1  0.584686  0.912516  0.707415  1
  Li  Li5227  1  0.412516  0.915314  0.292585  1
  Li  Li5228  1  0.415314  0.087484  0.707415  1
  Li  Li5229  1  0.412516  0.084686  0.707415  1
  Li  Li5230  1  0.584686  0.087484  0.292585  1
  Li  Li5231  1  0.415314  0.912516  0.292585  1
  Li  Li5232  1  0.707415  0.587484  0.915314  1
  Li  Li5233  1  0.087484  0.792585  0.084686  1
  Li  Li5234  1  0.292585  0.412516  0.915314  1
  Li  Li5235  1  0.912516  0.207415  0.084686  1
  Li  Li5236  1  0.707415  0.412516  0.084686  1
  Li  Li5237  1  0.912516  0.792585  0.915314  1
  Li  Li5238  1  0.292585  0.587484  0.084686  1
  Li  Li5239  1  0.087484  0.207415  0.915314  1
  Li  Li5240  1  0.915314  0.207415  0.087484  1
  Li  Li5241  1  0.707415  0.584686  0.912516  1
  Li  Li5242  1  0.084686  0.792585  0.087484  1
  Li  Li5243  1  0.292585  0.415314  0.912516  1
  Li  Li5244  1  0.915314  0.792585  0.912516  1
  Li  Li5245  1  0.292585  0.584686  0.087484  1
  Li  Li5246  1  0.084686  0.207415  0.912516  1
  Li  Li5247  1  0.707415  0.415314  0.087484  1
  Li  Li5248  1  0.087484  0.415314  0.707415  1
  Li  Li5249  1  0.087484  0.584686  0.292585  1
  Li  Li5250  1  0.084686  0.412516  0.707415  1
  Li  Li5251  1  0.912516  0.415314  0.292585  1
  Li  Li5252  1  0.915314  0.587484  0.707415  1
  Li  Li5253  1  0.912516  0.584686  0.707415  1
  Li  Li5254  1  0.084686  0.587484  0.292585  1
  Li  Li5255  1  0.915314  0.412516  0.292585  1
  Li  Li5256  1  0.707415  0.087484  0.415314  1
  Li  Li5257  1  0.087484  0.292585  0.584686  1
  Li  Li5258  1  0.292585  0.912516  0.415314  1
  Li  Li5259  1  0.912516  0.707415  0.584686  1
  Li  Li5260  1  0.707415  0.912516  0.584686  1
  Li  Li5261  1  0.912516  0.292585  0.415314  1
  Li  Li5262  1  0.292585  0.087484  0.584686  1
  Li  Li5263  1  0.087484  0.707415  0.415314  1
  Li  Li5264  1  0.915314  0.707415  0.587484  1
  Li  Li5265  1  0.707415  0.084686  0.412516  1
  Li  Li5266  1  0.084686  0.292585  0.587484  1
  Li  Li5267  1  0.292585  0.915314  0.412516  1
  Li  Li5268  1  0.915314  0.292585  0.412516  1
  Li  Li5269  1  0.292585  0.084686  0.587484  1
  Li  Li5270  1  0.084686  0.707415  0.412516  1
  Li  Li5271  1  0.707415  0.915314  0.587484  1
  Li  Li5272  1  0.087484  0.915314  0.207415  1
  Li  Li5273  1  0.087484  0.084686  0.792585  1
  Li  Li5274  1  0.084686  0.912516  0.207415  1
  Li  Li5275  1  0.912516  0.915314  0.792585  1
  Li  Li5276  1  0.915314  0.087484  0.207415  1
  Li  Li5277  1  0.912516  0.084686  0.207415  1
  Li  Li5278  1  0.084686  0.087484  0.792585  1
  Li  Li5279  1  0.915314  0.912516  0.792585  1
  Li  Li5280  1  0.194359  0.513117  0.307625  1
  Li  Li5281  1  0.513117  0.805641  0.692375  1
  Li  Li5282  1  0.805641  0.486883  0.307625  1
  Li  Li5283  1  0.486883  0.194359  0.692375  1
  Li  Li5284  1  0.194359  0.486883  0.692375  1
  Li  Li5285  1  0.486883  0.805641  0.307625  1
  Li  Li5286  1  0.805641  0.513117  0.692375  1
  Li  Li5287  1  0.513117  0.194359  0.307625  1
  Li  Li5288  1  0.307625  0.194359  0.513117  1
  Li  Li5289  1  0.194359  0.692375  0.486883  1
  Li  Li5290  1  0.692375  0.805641  0.513117  1
  Li  Li5291  1  0.805641  0.307625  0.486883  1
  Li  Li5292  1  0.307625  0.805641  0.486883  1
  Li  Li5293  1  0.805641  0.692375  0.513117  1
  Li  Li5294  1  0.692375  0.194359  0.486883  1
  Li  Li5295  1  0.194359  0.307625  0.513117  1
  Li  Li5296  1  0.513117  0.307625  0.194359  1
  Li  Li5297  1  0.513117  0.692375  0.805641  1
  Li  Li5298  1  0.692375  0.486883  0.194359  1
  Li  Li5299  1  0.486883  0.307625  0.805641  1
  Li  Li5300  1  0.307625  0.513117  0.194359  1
  Li  Li5301  1  0.486883  0.692375  0.194359  1
  Li  Li5302  1  0.692375  0.513117  0.805641  1
  Li  Li5303  1  0.307625  0.486883  0.805641  1
  Li  Li5304  1  0.194359  0.013117  0.807625  1
  Li  Li5305  1  0.513117  0.305641  0.192375  1
  Li  Li5306  1  0.805641  0.986883  0.807625  1
  Li  Li5307  1  0.486883  0.694359  0.192375  1
  Li  Li5308  1  0.194359  0.986883  0.192375  1
  Li  Li5309  1  0.486883  0.305641  0.807625  1
  Li  Li5310  1  0.805641  0.013117  0.192375  1
  Li  Li5311  1  0.513117  0.694359  0.807625  1
  Li  Li5312  1  0.307625  0.694359  0.013117  1
  Li  Li5313  1  0.194359  0.192375  0.986883  1
  Li  Li5314  1  0.692375  0.305641  0.013117  1
  Li  Li5315  1  0.805641  0.807625  0.986883  1
  Li  Li5316  1  0.307625  0.305641  0.986883  1
  Li  Li5317  1  0.805641  0.192375  0.013117  1
  Li  Li5318  1  0.692375  0.694359  0.986883  1
  Li  Li5319  1  0.194359  0.807625  0.013117  1
  Li  Li5320  1  0.513117  0.807625  0.694359  1
  Li  Li5321  1  0.513117  0.192375  0.305641  1
  Li  Li5322  1  0.692375  0.986883  0.694359  1
  Li  Li5323  1  0.486883  0.807625  0.305641  1
  Li  Li5324  1  0.307625  0.013117  0.694359  1
  Li  Li5325  1  0.486883  0.192375  0.694359  1
  Li  Li5326  1  0.692375  0.013117  0.305641  1
  Li  Li5327  1  0.307625  0.986883  0.305641  1
  Li  Li5328  1  0.694359  0.513117  0.807625  1
  Li  Li5329  1  0.013117  0.805641  0.192375  1
  Li  Li5330  1  0.305641  0.486883  0.807625  1
  Li  Li5331  1  0.986883  0.194359  0.192375  1
  Li  Li5332  1  0.694359  0.486883  0.192375  1
  Li  Li5333  1  0.986883  0.805641  0.807625  1
  Li  Li5334  1  0.305641  0.513117  0.192375  1
  Li  Li5335  1  0.013117  0.194359  0.807625  1
  Li  Li5336  1  0.807625  0.194359  0.013117  1
  Li  Li5337  1  0.694359  0.692375  0.986883  1
  Li  Li5338  1  0.192375  0.805641  0.013117  1
  Li  Li5339  1  0.305641  0.307625  0.986883  1
  Li  Li5340  1  0.807625  0.805641  0.986883  1
  Li  Li5341  1  0.305641  0.692375  0.013117  1
  Li  Li5342  1  0.192375  0.194359  0.986883  1
  Li  Li5343  1  0.694359  0.307625  0.013117  1
  Li  Li5344  1  0.013117  0.307625  0.694359  1
  Li  Li5345  1  0.013117  0.692375  0.305641  1
  Li  Li5346  1  0.192375  0.486883  0.694359  1
  Li  Li5347  1  0.986883  0.307625  0.305641  1
  Li  Li5348  1  0.807625  0.513117  0.694359  1
  Li  Li5349  1  0.986883  0.692375  0.694359  1
  Li  Li5350  1  0.192375  0.513117  0.305641  1
  Li  Li5351  1  0.807625  0.486883  0.305641  1
  Li  Li5352  1  0.694359  0.013117  0.307625  1
  Li  Li5353  1  0.013117  0.305641  0.692375  1
  Li  Li5354  1  0.305641  0.986883  0.307625  1
  Li  Li5355  1  0.986883  0.694359  0.692375  1
  Li  Li5356  1  0.694359  0.986883  0.692375  1
  Li  Li5357  1  0.986883  0.305641  0.307625  1
  Li  Li5358  1  0.305641  0.013117  0.692375  1
  Li  Li5359  1  0.013117  0.694359  0.307625  1
  Li  Li5360  1  0.807625  0.694359  0.513117  1
  Li  Li5361  1  0.694359  0.192375  0.486883  1
  Li  Li5362  1  0.192375  0.305641  0.513117  1
  Li  Li5363  1  0.305641  0.807625  0.486883  1
  Li  Li5364  1  0.807625  0.305641  0.486883  1
  Li  Li5365  1  0.305641  0.192375  0.513117  1
  Li  Li5366  1  0.192375  0.694359  0.486883  1
  Li  Li5367  1  0.694359  0.807625  0.513117  1
  Li  Li5368  1  0.013117  0.807625  0.194359  1
  Li  Li5369  1  0.013117  0.192375  0.805641  1
  Li  Li5370  1  0.192375  0.986883  0.194359  1
  Li  Li5371  1  0.986883  0.807625  0.805641  1
  Li  Li5372  1  0.807625  0.013117  0.194359  1
  Li  Li5373  1  0.986883  0.192375  0.194359  1
  Li  Li5374  1  0.192375  0.013117  0.805641  1
  Li  Li5375  1  0.807625  0.986883  0.805641  1
  Li  Li5376  1  0.019713  0.736233  0.282993  1
  Li  Li5377  1  0.736233  0.980287  0.717007  1
  Li  Li5378  1  0.980287  0.263767  0.282993  1
  Li  Li5379  1  0.263767  0.019713  0.717007  1
  Li  Li5380  1  0.019713  0.263767  0.717007  1
  Li  Li5381  1  0.263767  0.980287  0.282993  1
  Li  Li5382  1  0.980287  0.736233  0.717007  1
  Li  Li5383  1  0.736233  0.019713  0.282993  1
  Li  Li5384  1  0.282993  0.019713  0.736233  1
  Li  Li5385  1  0.019713  0.717007  0.263767  1
  Li  Li5386  1  0.717007  0.980287  0.736233  1
  Li  Li5387  1  0.980287  0.282993  0.263767  1
  Li  Li5388  1  0.282993  0.980287  0.263767  1
  Li  Li5389  1  0.980287  0.717007  0.736233  1
  Li  Li5390  1  0.717007  0.019713  0.263767  1
  Li  Li5391  1  0.019713  0.282993  0.736233  1
  Li  Li5392  1  0.736233  0.282993  0.019713  1
  Li  Li5393  1  0.736233  0.717007  0.980287  1
  Li  Li5394  1  0.717007  0.263767  0.019713  1
  Li  Li5395  1  0.263767  0.282993  0.980287  1
  Li  Li5396  1  0.282993  0.736233  0.019713  1
  Li  Li5397  1  0.263767  0.717007  0.019713  1
  Li  Li5398  1  0.717007  0.736233  0.980287  1
  Li  Li5399  1  0.282993  0.263767  0.980287  1
  Li  Li5400  1  0.019713  0.236233  0.782993  1
  Li  Li5401  1  0.736233  0.480287  0.217007  1
  Li  Li5402  1  0.980287  0.763767  0.782993  1
  Li  Li5403  1  0.263767  0.519713  0.217007  1
  Li  Li5404  1  0.019713  0.763767  0.217007  1
  Li  Li5405  1  0.263767  0.480287  0.782993  1
  Li  Li5406  1  0.980287  0.236233  0.217007  1
  Li  Li5407  1  0.736233  0.519713  0.782993  1
  Li  Li5408  1  0.282993  0.519713  0.236233  1
  Li  Li5409  1  0.019713  0.217007  0.763767  1
  Li  Li5410  1  0.717007  0.480287  0.236233  1
  Li  Li5411  1  0.980287  0.782993  0.763767  1
  Li  Li5412  1  0.282993  0.480287  0.763767  1
  Li  Li5413  1  0.980287  0.217007  0.236233  1
  Li  Li5414  1  0.717007  0.519713  0.763767  1
  Li  Li5415  1  0.019713  0.782993  0.236233  1
  Li  Li5416  1  0.736233  0.782993  0.519713  1
  Li  Li5417  1  0.736233  0.217007  0.480287  1
  Li  Li5418  1  0.717007  0.763767  0.519713  1
  Li  Li5419  1  0.263767  0.782993  0.480287  1
  Li  Li5420  1  0.282993  0.236233  0.519713  1
  Li  Li5421  1  0.263767  0.217007  0.519713  1
  Li  Li5422  1  0.717007  0.236233  0.480287  1
  Li  Li5423  1  0.282993  0.763767  0.480287  1
  Li  Li5424  1  0.519713  0.736233  0.782993  1
  Li  Li5425  1  0.236233  0.980287  0.217007  1
  Li  Li5426  1  0.480287  0.263767  0.782993  1
  Li  Li5427  1  0.763767  0.019713  0.217007  1
  Li  Li5428  1  0.519713  0.263767  0.217007  1
  Li  Li5429  1  0.763767  0.980287  0.782993  1
  Li  Li5430  1  0.480287  0.736233  0.217007  1
  Li  Li5431  1  0.236233  0.019713  0.782993  1
  Li  Li5432  1  0.782993  0.019713  0.236233  1
  Li  Li5433  1  0.519713  0.717007  0.763767  1
  Li  Li5434  1  0.217007  0.980287  0.236233  1
  Li  Li5435  1  0.480287  0.282993  0.763767  1
  Li  Li5436  1  0.782993  0.980287  0.763767  1
  Li  Li5437  1  0.480287  0.717007  0.236233  1
  Li  Li5438  1  0.217007  0.019713  0.763767  1
  Li  Li5439  1  0.519713  0.282993  0.236233  1
  Li  Li5440  1  0.236233  0.282993  0.519713  1
  Li  Li5441  1  0.236233  0.717007  0.480287  1
  Li  Li5442  1  0.217007  0.263767  0.519713  1
  Li  Li5443  1  0.763767  0.282993  0.480287  1
  Li  Li5444  1  0.782993  0.736233  0.519713  1
  Li  Li5445  1  0.763767  0.717007  0.519713  1
  Li  Li5446  1  0.217007  0.736233  0.480287  1
  Li  Li5447  1  0.782993  0.263767  0.480287  1
  Li  Li5448  1  0.519713  0.236233  0.282993  1
  Li  Li5449  1  0.236233  0.480287  0.717007  1
  Li  Li5450  1  0.480287  0.763767  0.282993  1
  Li  Li5451  1  0.763767  0.519713  0.717007  1
  Li  Li5452  1  0.519713  0.763767  0.717007  1
  Li  Li5453  1  0.763767  0.480287  0.282993  1
  Li  Li5454  1  0.480287  0.236233  0.717007  1
  Li  Li5455  1  0.236233  0.519713  0.282993  1
  Li  Li5456  1  0.782993  0.519713  0.736233  1
  Li  Li5457  1  0.519713  0.217007  0.263767  1
  Li  Li5458  1  0.217007  0.480287  0.736233  1
  Li  Li5459  1  0.480287  0.782993  0.263767  1
  Li  Li5460  1  0.782993  0.480287  0.263767  1
  Li  Li5461  1  0.480287  0.217007  0.736233  1
  Li  Li5462  1  0.217007  0.519713  0.263767  1
  Li  Li5463  1  0.519713  0.782993  0.736233  1
  Li  Li5464  1  0.236233  0.782993  0.019713  1
  Li  Li5465  1  0.236233  0.217007  0.980287  1
  Li  Li5466  1  0.217007  0.763767  0.019713  1
  Li  Li5467  1  0.763767  0.782993  0.980287  1
  Li  Li5468  1  0.782993  0.236233  0.019713  1
  Li  Li5469  1  0.763767  0.217007  0.019713  1
  Li  Li5470  1  0.217007  0.236233  0.980287  1
  Li  Li5471  1  0.782993  0.763767  0.980287  1
  Li  Li5472  1  0.476919  0.715096  0.215264  1
  Li  Li5473  1  0.715096  0.523081  0.784736  1
  Li  Li5474  1  0.523081  0.284904  0.215264  1
  Li  Li5475  1  0.284904  0.476919  0.784736  1
  Li  Li5476  1  0.476919  0.284904  0.784736  1
  Li  Li5477  1  0.284904  0.523081  0.215264  1
  Li  Li5478  1  0.523081  0.715096  0.784736  1
  Li  Li5479  1  0.715096  0.476919  0.215264  1
  Li  Li5480  1  0.215264  0.476919  0.715096  1
  Li  Li5481  1  0.476919  0.784736  0.284904  1
  Li  Li5482  1  0.784736  0.523081  0.715096  1
  Li  Li5483  1  0.523081  0.215264  0.284904  1
  Li  Li5484  1  0.215264  0.523081  0.284904  1
  Li  Li5485  1  0.523081  0.784736  0.715096  1
  Li  Li5486  1  0.784736  0.476919  0.284904  1
  Li  Li5487  1  0.476919  0.215264  0.715096  1
  Li  Li5488  1  0.715096  0.215264  0.476919  1
  Li  Li5489  1  0.715096  0.784736  0.523081  1
  Li  Li5490  1  0.784736  0.284904  0.476919  1
  Li  Li5491  1  0.284904  0.215264  0.523081  1
  Li  Li5492  1  0.215264  0.715096  0.476919  1
  Li  Li5493  1  0.284904  0.784736  0.476919  1
  Li  Li5494  1  0.784736  0.715096  0.523081  1
  Li  Li5495  1  0.215264  0.284904  0.523081  1
  Li  Li5496  1  0.476919  0.215096  0.715264  1
  Li  Li5497  1  0.715096  0.023081  0.284736  1
  Li  Li5498  1  0.523081  0.784904  0.715264  1
  Li  Li5499  1  0.284904  0.976919  0.284736  1
  Li  Li5500  1  0.476919  0.784904  0.284736  1
  Li  Li5501  1  0.284904  0.023081  0.715264  1
  Li  Li5502  1  0.523081  0.215096  0.284736  1
  Li  Li5503  1  0.715096  0.976919  0.715264  1
  Li  Li5504  1  0.215264  0.976919  0.215096  1
  Li  Li5505  1  0.476919  0.284736  0.784904  1
  Li  Li5506  1  0.784736  0.023081  0.215096  1
  Li  Li5507  1  0.523081  0.715264  0.784904  1
  Li  Li5508  1  0.215264  0.023081  0.784904  1
  Li  Li5509  1  0.523081  0.284736  0.215096  1
  Li  Li5510  1  0.784736  0.976919  0.784904  1
  Li  Li5511  1  0.476919  0.715264  0.215096  1
  Li  Li5512  1  0.715096  0.715264  0.976919  1
  Li  Li5513  1  0.715096  0.284736  0.023081  1
  Li  Li5514  1  0.784736  0.784904  0.976919  1
  Li  Li5515  1  0.284904  0.715264  0.023081  1
  Li  Li5516  1  0.215264  0.215096  0.976919  1
  Li  Li5517  1  0.284904  0.284736  0.976919  1
  Li  Li5518  1  0.784736  0.215096  0.023081  1
  Li  Li5519  1  0.215264  0.784904  0.023081  1
  Li  Li5520  1  0.976919  0.715096  0.715264  1
  Li  Li5521  1  0.215096  0.523081  0.284736  1
  Li  Li5522  1  0.023081  0.284904  0.715264  1
  Li  Li5523  1  0.784904  0.476919  0.284736  1
  Li  Li5524  1  0.976919  0.284904  0.284736  1
  Li  Li5525  1  0.784904  0.523081  0.715264  1
  Li  Li5526  1  0.023081  0.715096  0.284736  1
  Li  Li5527  1  0.215096  0.476919  0.715264  1
  Li  Li5528  1  0.715264  0.476919  0.215096  1
  Li  Li5529  1  0.976919  0.784736  0.784904  1
  Li  Li5530  1  0.284736  0.523081  0.215096  1
  Li  Li5531  1  0.023081  0.215264  0.784904  1
  Li  Li5532  1  0.715264  0.523081  0.784904  1
  Li  Li5533  1  0.023081  0.784736  0.215096  1
  Li  Li5534  1  0.284736  0.476919  0.784904  1
  Li  Li5535  1  0.976919  0.215264  0.215096  1
  Li  Li5536  1  0.215096  0.215264  0.976919  1
  Li  Li5537  1  0.215096  0.784736  0.023081  1
  Li  Li5538  1  0.284736  0.284904  0.976919  1
  Li  Li5539  1  0.784904  0.215264  0.023081  1
  Li  Li5540  1  0.715264  0.715096  0.976919  1
  Li  Li5541  1  0.784904  0.784736  0.976919  1
  Li  Li5542  1  0.284736  0.715096  0.023081  1
  Li  Li5543  1  0.715264  0.284904  0.023081  1
  Li  Li5544  1  0.976919  0.215096  0.215264  1
  Li  Li5545  1  0.215096  0.023081  0.784736  1
  Li  Li5546  1  0.023081  0.784904  0.215264  1
  Li  Li5547  1  0.784904  0.976919  0.784736  1
  Li  Li5548  1  0.976919  0.784904  0.784736  1
  Li  Li5549  1  0.784904  0.023081  0.215264  1
  Li  Li5550  1  0.023081  0.215096  0.784736  1
  Li  Li5551  1  0.215096  0.976919  0.215264  1
  Li  Li5552  1  0.715264  0.976919  0.715096  1
  Li  Li5553  1  0.976919  0.284736  0.284904  1
  Li  Li5554  1  0.284736  0.023081  0.715096  1
  Li  Li5555  1  0.023081  0.715264  0.284904  1
  Li  Li5556  1  0.715264  0.023081  0.284904  1
  Li  Li5557  1  0.023081  0.284736  0.715096  1
  Li  Li5558  1  0.284736  0.976919  0.284904  1
  Li  Li5559  1  0.976919  0.715264  0.715096  1
  Li  Li5560  1  0.215096  0.715264  0.476919  1
  Li  Li5561  1  0.215096  0.284736  0.523081  1
  Li  Li5562  1  0.284736  0.784904  0.476919  1
  Li  Li5563  1  0.784904  0.715264  0.523081  1
  Li  Li5564  1  0.715264  0.215096  0.476919  1
  Li  Li5565  1  0.784904  0.284736  0.476919  1
  Li  Li5566  1  0.284736  0.215096  0.523081  1
  Li  Li5567  1  0.715264  0.784904  0.523081  1
  Li  Li5568  1  0.476707  0.698509  0.207476  1
  Li  Li5569  1  0.698509  0.523293  0.792524  1
  Li  Li5570  1  0.523293  0.301491  0.207476  1
  Li  Li5571  1  0.301491  0.476707  0.792524  1
  Li  Li5572  1  0.476707  0.301491  0.792524  1
  Li  Li5573  1  0.301491  0.523293  0.207476  1
  Li  Li5574  1  0.523293  0.698509  0.792524  1
  Li  Li5575  1  0.698509  0.476707  0.207476  1
  Li  Li5576  1  0.207476  0.476707  0.698509  1
  Li  Li5577  1  0.476707  0.792524  0.301491  1
  Li  Li5578  1  0.792524  0.523293  0.698509  1
  Li  Li5579  1  0.523293  0.207476  0.301491  1
  Li  Li5580  1  0.207476  0.523293  0.301491  1
  Li  Li5581  1  0.523293  0.792524  0.698509  1
  Li  Li5582  1  0.792524  0.476707  0.301491  1
  Li  Li5583  1  0.476707  0.207476  0.698509  1
  Li  Li5584  1  0.698509  0.207476  0.476707  1
  Li  Li5585  1  0.698509  0.792524  0.523293  1
  Li  Li5586  1  0.792524  0.301491  0.476707  1
  Li  Li5587  1  0.301491  0.207476  0.523293  1
  Li  Li5588  1  0.207476  0.698509  0.476707  1
  Li  Li5589  1  0.301491  0.792524  0.476707  1
  Li  Li5590  1  0.792524  0.698509  0.523293  1
  Li  Li5591  1  0.207476  0.301491  0.523293  1
  Li  Li5592  1  0.476707  0.198509  0.707476  1
  Li  Li5593  1  0.698509  0.023293  0.292524  1
  Li  Li5594  1  0.523293  0.801491  0.707476  1
  Li  Li5595  1  0.301491  0.976707  0.292524  1
  Li  Li5596  1  0.476707  0.801491  0.292524  1
  Li  Li5597  1  0.301491  0.023293  0.707476  1
  Li  Li5598  1  0.523293  0.198509  0.292524  1
  Li  Li5599  1  0.698509  0.976707  0.707476  1
  Li  Li5600  1  0.207476  0.976707  0.198509  1
  Li  Li5601  1  0.476707  0.292524  0.801491  1
  Li  Li5602  1  0.792524  0.023293  0.198509  1
  Li  Li5603  1  0.523293  0.707476  0.801491  1
  Li  Li5604  1  0.207476  0.023293  0.801491  1
  Li  Li5605  1  0.523293  0.292524  0.198509  1
  Li  Li5606  1  0.792524  0.976707  0.801491  1
  Li  Li5607  1  0.476707  0.707476  0.198509  1
  Li  Li5608  1  0.698509  0.707476  0.976707  1
  Li  Li5609  1  0.698509  0.292524  0.023293  1
  Li  Li5610  1  0.792524  0.801491  0.976707  1
  Li  Li5611  1  0.301491  0.707476  0.023293  1
  Li  Li5612  1  0.207476  0.198509  0.976707  1
  Li  Li5613  1  0.301491  0.292524  0.976707  1
  Li  Li5614  1  0.792524  0.198509  0.023293  1
  Li  Li5615  1  0.207476  0.801491  0.023293  1
  Li  Li5616  1  0.976707  0.698509  0.707476  1
  Li  Li5617  1  0.198509  0.523293  0.292524  1
  Li  Li5618  1  0.023293  0.301491  0.707476  1
  Li  Li5619  1  0.801491  0.476707  0.292524  1
  Li  Li5620  1  0.976707  0.301491  0.292524  1
  Li  Li5621  1  0.801491  0.523293  0.707476  1
  Li  Li5622  1  0.023293  0.698509  0.292524  1
  Li  Li5623  1  0.198509  0.476707  0.707476  1
  Li  Li5624  1  0.707476  0.476707  0.198509  1
  Li  Li5625  1  0.976707  0.792524  0.801491  1
  Li  Li5626  1  0.292524  0.523293  0.198509  1
  Li  Li5627  1  0.023293  0.207476  0.801491  1
  Li  Li5628  1  0.707476  0.523293  0.801491  1
  Li  Li5629  1  0.023293  0.792524  0.198509  1
  Li  Li5630  1  0.292524  0.476707  0.801491  1
  Li  Li5631  1  0.976707  0.207476  0.198509  1
  Li  Li5632  1  0.198509  0.207476  0.976707  1
  Li  Li5633  1  0.198509  0.792524  0.023293  1
  Li  Li5634  1  0.292524  0.301491  0.976707  1
  Li  Li5635  1  0.801491  0.207476  0.023293  1
  Li  Li5636  1  0.707476  0.698509  0.976707  1
  Li  Li5637  1  0.801491  0.792524  0.976707  1
  Li  Li5638  1  0.292524  0.698509  0.023293  1
  Li  Li5639  1  0.707476  0.301491  0.023293  1
  Li  Li5640  1  0.976707  0.198509  0.207476  1
  Li  Li5641  1  0.198509  0.023293  0.792524  1
  Li  Li5642  1  0.023293  0.801491  0.207476  1
  Li  Li5643  1  0.801491  0.976707  0.792524  1
  Li  Li5644  1  0.976707  0.801491  0.792524  1
  Li  Li5645  1  0.801491  0.023293  0.207476  1
  Li  Li5646  1  0.023293  0.198509  0.792524  1
  Li  Li5647  1  0.198509  0.976707  0.207476  1
  Li  Li5648  1  0.707476  0.976707  0.698509  1
  Li  Li5649  1  0.976707  0.292524  0.301491  1
  Li  Li5650  1  0.292524  0.023293  0.698509  1
  Li  Li5651  1  0.023293  0.707476  0.301491  1
  Li  Li5652  1  0.707476  0.023293  0.301491  1
  Li  Li5653  1  0.023293  0.292524  0.698509  1
  Li  Li5654  1  0.292524  0.976707  0.301491  1
  Li  Li5655  1  0.976707  0.707476  0.698509  1
  Li  Li5656  1  0.198509  0.707476  0.476707  1
  Li  Li5657  1  0.198509  0.292524  0.523293  1
  Li  Li5658  1  0.292524  0.801491  0.476707  1
  Li  Li5659  1  0.801491  0.707476  0.523293  1
  Li  Li5660  1  0.707476  0.198509  0.476707  1
  Li  Li5661  1  0.801491  0.292524  0.476707  1
  Li  Li5662  1  0.292524  0.198509  0.523293  1
  Li  Li5663  1  0.707476  0.801491  0.523293  1
  Li  Li5664  1  0.407618  0.776874  0.419032  1
  Li  Li5665  1  0.776874  0.592382  0.580968  1
  Li  Li5666  1  0.592382  0.223126  0.419032  1
  Li  Li5667  1  0.223126  0.407618  0.580968  1
  Li  Li5668  1  0.407618  0.223126  0.580968  1
  Li  Li5669  1  0.223126  0.592382  0.419032  1
  Li  Li5670  1  0.592382  0.776874  0.580968  1
  Li  Li5671  1  0.776874  0.407618  0.419032  1
  Li  Li5672  1  0.419032  0.407618  0.776874  1
  Li  Li5673  1  0.407618  0.580968  0.223126  1
  Li  Li5674  1  0.580968  0.592382  0.776874  1
  Li  Li5675  1  0.592382  0.419032  0.223126  1
  Li  Li5676  1  0.419032  0.592382  0.223126  1
  Li  Li5677  1  0.592382  0.580968  0.776874  1
  Li  Li5678  1  0.580968  0.407618  0.223126  1
  Li  Li5679  1  0.407618  0.419032  0.776874  1
  Li  Li5680  1  0.776874  0.419032  0.407618  1
  Li  Li5681  1  0.776874  0.580968  0.592382  1
  Li  Li5682  1  0.580968  0.223126  0.407618  1
  Li  Li5683  1  0.223126  0.419032  0.592382  1
  Li  Li5684  1  0.419032  0.776874  0.407618  1
  Li  Li5685  1  0.223126  0.580968  0.407618  1
  Li  Li5686  1  0.580968  0.776874  0.592382  1
  Li  Li5687  1  0.419032  0.223126  0.592382  1
  Li  Li5688  1  0.407618  0.276874  0.919032  1
  Li  Li5689  1  0.776874  0.092382  0.080968  1
  Li  Li5690  1  0.592382  0.723126  0.919032  1
  Li  Li5691  1  0.223126  0.907618  0.080968  1
  Li  Li5692  1  0.407618  0.723126  0.080968  1
  Li  Li5693  1  0.223126  0.092382  0.919032  1
  Li  Li5694  1  0.592382  0.276874  0.080968  1
  Li  Li5695  1  0.776874  0.907618  0.919032  1
  Li  Li5696  1  0.419032  0.907618  0.276874  1
  Li  Li5697  1  0.407618  0.080968  0.723126  1
  Li  Li5698  1  0.580968  0.092382  0.276874  1
  Li  Li5699  1  0.592382  0.919032  0.723126  1
  Li  Li5700  1  0.419032  0.092382  0.723126  1
  Li  Li5701  1  0.592382  0.080968  0.276874  1
  Li  Li5702  1  0.580968  0.907618  0.723126  1
  Li  Li5703  1  0.407618  0.919032  0.276874  1
  Li  Li5704  1  0.776874  0.919032  0.907618  1
  Li  Li5705  1  0.776874  0.080968  0.092382  1
  Li  Li5706  1  0.580968  0.723126  0.907618  1
  Li  Li5707  1  0.223126  0.919032  0.092382  1
  Li  Li5708  1  0.419032  0.276874  0.907618  1
  Li  Li5709  1  0.223126  0.080968  0.907618  1
  Li  Li5710  1  0.580968  0.276874  0.092382  1
  Li  Li5711  1  0.419032  0.723126  0.092382  1
  Li  Li5712  1  0.907618  0.776874  0.919032  1
  Li  Li5713  1  0.276874  0.592382  0.080968  1
  Li  Li5714  1  0.092382  0.223126  0.919032  1
  Li  Li5715  1  0.723126  0.407618  0.080968  1
  Li  Li5716  1  0.907618  0.223126  0.080968  1
  Li  Li5717  1  0.723126  0.592382  0.919032  1
  Li  Li5718  1  0.092382  0.776874  0.080968  1
  Li  Li5719  1  0.276874  0.407618  0.919032  1
  Li  Li5720  1  0.919032  0.407618  0.276874  1
  Li  Li5721  1  0.907618  0.580968  0.723126  1
  Li  Li5722  1  0.080968  0.592382  0.276874  1
  Li  Li5723  1  0.092382  0.419032  0.723126  1
  Li  Li5724  1  0.919032  0.592382  0.723126  1
  Li  Li5725  1  0.092382  0.580968  0.276874  1
  Li  Li5726  1  0.080968  0.407618  0.723126  1
  Li  Li5727  1  0.907618  0.419032  0.276874  1
  Li  Li5728  1  0.276874  0.419032  0.907618  1
  Li  Li5729  1  0.276874  0.580968  0.092382  1
  Li  Li5730  1  0.080968  0.223126  0.907618  1
  Li  Li5731  1  0.723126  0.419032  0.092382  1
  Li  Li5732  1  0.919032  0.776874  0.907618  1
  Li  Li5733  1  0.723126  0.580968  0.907618  1
  Li  Li5734  1  0.080968  0.776874  0.092382  1
  Li  Li5735  1  0.919032  0.223126  0.092382  1
  Li  Li5736  1  0.907618  0.276874  0.419032  1
  Li  Li5737  1  0.276874  0.092382  0.580968  1
  Li  Li5738  1  0.092382  0.723126  0.419032  1
  Li  Li5739  1  0.723126  0.907618  0.580968  1
  Li  Li5740  1  0.907618  0.723126  0.580968  1
  Li  Li5741  1  0.723126  0.092382  0.419032  1
  Li  Li5742  1  0.092382  0.276874  0.580968  1
  Li  Li5743  1  0.276874  0.907618  0.419032  1
  Li  Li5744  1  0.919032  0.907618  0.776874  1
  Li  Li5745  1  0.907618  0.080968  0.223126  1
  Li  Li5746  1  0.080968  0.092382  0.776874  1
  Li  Li5747  1  0.092382  0.919032  0.223126  1
  Li  Li5748  1  0.919032  0.092382  0.223126  1
  Li  Li5749  1  0.092382  0.080968  0.776874  1
  Li  Li5750  1  0.080968  0.907618  0.223126  1
  Li  Li5751  1  0.907618  0.919032  0.776874  1
  Li  Li5752  1  0.276874  0.919032  0.407618  1
  Li  Li5753  1  0.276874  0.080968  0.592382  1
  Li  Li5754  1  0.080968  0.723126  0.407618  1
  Li  Li5755  1  0.723126  0.919032  0.592382  1
  Li  Li5756  1  0.919032  0.276874  0.407618  1
  Li  Li5757  1  0.723126  0.080968  0.407618  1
  Li  Li5758  1  0.080968  0.276874  0.592382  1
  Li  Li5759  1  0.919032  0.723126  0.592382  1
  Li  Li5760  1  0.239419  0.770164  0.041802  1
  Li  Li5761  1  0.770164  0.760581  0.958198  1
  Li  Li5762  1  0.760581  0.229836  0.041802  1
  Li  Li5763  1  0.229836  0.239419  0.958198  1
  Li  Li5764  1  0.239419  0.229836  0.958198  1
  Li  Li5765  1  0.229836  0.760581  0.041802  1
  Li  Li5766  1  0.760581  0.770164  0.958198  1
  Li  Li5767  1  0.770164  0.239419  0.041802  1
  Li  Li5768  1  0.041802  0.239419  0.770164  1
  Li  Li5769  1  0.239419  0.958198  0.229836  1
  Li  Li5770  1  0.958198  0.760581  0.770164  1
  Li  Li5771  1  0.760581  0.041802  0.229836  1
  Li  Li5772  1  0.041802  0.760581  0.229836  1
  Li  Li5773  1  0.760581  0.958198  0.770164  1
  Li  Li5774  1  0.958198  0.239419  0.229836  1
  Li  Li5775  1  0.239419  0.041802  0.770164  1
  Li  Li5776  1  0.770164  0.041802  0.239419  1
  Li  Li5777  1  0.770164  0.958198  0.760581  1
  Li  Li5778  1  0.958198  0.229836  0.239419  1
  Li  Li5779  1  0.229836  0.041802  0.760581  1
  Li  Li5780  1  0.041802  0.770164  0.239419  1
  Li  Li5781  1  0.229836  0.958198  0.239419  1
  Li  Li5782  1  0.958198  0.770164  0.760581  1
  Li  Li5783  1  0.041802  0.229836  0.760581  1
  Li  Li5784  1  0.239419  0.270164  0.541802  1
  Li  Li5785  1  0.770164  0.260581  0.458198  1
  Li  Li5786  1  0.760581  0.729836  0.541802  1
  Li  Li5787  1  0.229836  0.739419  0.458198  1
  Li  Li5788  1  0.239419  0.729836  0.458198  1
  Li  Li5789  1  0.229836  0.260581  0.541802  1
  Li  Li5790  1  0.760581  0.270164  0.458198  1
  Li  Li5791  1  0.770164  0.739419  0.541802  1
  Li  Li5792  1  0.041802  0.739419  0.270164  1
  Li  Li5793  1  0.239419  0.458198  0.729836  1
  Li  Li5794  1  0.958198  0.260581  0.270164  1
  Li  Li5795  1  0.760581  0.541802  0.729836  1
  Li  Li5796  1  0.041802  0.260581  0.729836  1
  Li  Li5797  1  0.760581  0.458198  0.270164  1
  Li  Li5798  1  0.958198  0.739419  0.729836  1
  Li  Li5799  1  0.239419  0.541802  0.270164  1
  Li  Li5800  1  0.770164  0.541802  0.739419  1
  Li  Li5801  1  0.770164  0.458198  0.260581  1
  Li  Li5802  1  0.958198  0.729836  0.739419  1
  Li  Li5803  1  0.229836  0.541802  0.260581  1
  Li  Li5804  1  0.041802  0.270164  0.739419  1
  Li  Li5805  1  0.229836  0.458198  0.739419  1
  Li  Li5806  1  0.958198  0.270164  0.260581  1
  Li  Li5807  1  0.041802  0.729836  0.260581  1
  Li  Li5808  1  0.739419  0.770164  0.541802  1
  Li  Li5809  1  0.270164  0.760581  0.458198  1
  Li  Li5810  1  0.260581  0.229836  0.541802  1
  Li  Li5811  1  0.729836  0.239419  0.458198  1
  Li  Li5812  1  0.739419  0.229836  0.458198  1
  Li  Li5813  1  0.729836  0.760581  0.541802  1
  Li  Li5814  1  0.260581  0.770164  0.458198  1
  Li  Li5815  1  0.270164  0.239419  0.541802  1
  Li  Li5816  1  0.541802  0.239419  0.270164  1
  Li  Li5817  1  0.739419  0.958198  0.729836  1
  Li  Li5818  1  0.458198  0.760581  0.270164  1
  Li  Li5819  1  0.260581  0.041802  0.729836  1
  Li  Li5820  1  0.541802  0.760581  0.729836  1
  Li  Li5821  1  0.260581  0.958198  0.270164  1
  Li  Li5822  1  0.458198  0.239419  0.729836  1
  Li  Li5823  1  0.739419  0.041802  0.270164  1
  Li  Li5824  1  0.270164  0.041802  0.739419  1
  Li  Li5825  1  0.270164  0.958198  0.260581  1
  Li  Li5826  1  0.458198  0.229836  0.739419  1
  Li  Li5827  1  0.729836  0.041802  0.260581  1
  Li  Li5828  1  0.541802  0.770164  0.739419  1
  Li  Li5829  1  0.729836  0.958198  0.739419  1
  Li  Li5830  1  0.458198  0.770164  0.260581  1
  Li  Li5831  1  0.541802  0.229836  0.260581  1
  Li  Li5832  1  0.739419  0.270164  0.041802  1
  Li  Li5833  1  0.270164  0.260581  0.958198  1
  Li  Li5834  1  0.260581  0.729836  0.041802  1
  Li  Li5835  1  0.729836  0.739419  0.958198  1
  Li  Li5836  1  0.739419  0.729836  0.958198  1
  Li  Li5837  1  0.729836  0.260581  0.041802  1
  Li  Li5838  1  0.260581  0.270164  0.958198  1
  Li  Li5839  1  0.270164  0.739419  0.041802  1
  Li  Li5840  1  0.541802  0.739419  0.770164  1
  Li  Li5841  1  0.739419  0.458198  0.229836  1
  Li  Li5842  1  0.458198  0.260581  0.770164  1
  Li  Li5843  1  0.260581  0.541802  0.229836  1
  Li  Li5844  1  0.541802  0.260581  0.229836  1
  Li  Li5845  1  0.260581  0.458198  0.770164  1
  Li  Li5846  1  0.458198  0.739419  0.229836  1
  Li  Li5847  1  0.739419  0.541802  0.770164  1
  Li  Li5848  1  0.270164  0.541802  0.239419  1
  Li  Li5849  1  0.270164  0.458198  0.760581  1
  Li  Li5850  1  0.458198  0.729836  0.239419  1
  Li  Li5851  1  0.729836  0.541802  0.760581  1
  Li  Li5852  1  0.541802  0.270164  0.239419  1
  Li  Li5853  1  0.729836  0.458198  0.239419  1
  Li  Li5854  1  0.458198  0.270164  0.760581  1
  Li  Li5855  1  0.541802  0.729836  0.760581  1
  Li  Li5856  1  0.226487  0.518378  0.293911  1
  Li  Li5857  1  0.518378  0.773513  0.706089  1
  Li  Li5858  1  0.773513  0.481622  0.293911  1
  Li  Li5859  1  0.481622  0.226487  0.706089  1
  Li  Li5860  1  0.226487  0.481622  0.706089  1
  Li  Li5861  1  0.481622  0.773513  0.293911  1
  Li  Li5862  1  0.773513  0.518378  0.706089  1
  Li  Li5863  1  0.518378  0.226487  0.293911  1
  Li  Li5864  1  0.293911  0.226487  0.518378  1
  Li  Li5865  1  0.226487  0.706089  0.481622  1
  Li  Li5866  1  0.706089  0.773513  0.518378  1
  Li  Li5867  1  0.773513  0.293911  0.481622  1
  Li  Li5868  1  0.293911  0.773513  0.481622  1
  Li  Li5869  1  0.773513  0.706089  0.518378  1
  Li  Li5870  1  0.706089  0.226487  0.481622  1
  Li  Li5871  1  0.226487  0.293911  0.518378  1
  Li  Li5872  1  0.518378  0.293911  0.226487  1
  Li  Li5873  1  0.518378  0.706089  0.773513  1
  Li  Li5874  1  0.706089  0.481622  0.226487  1
  Li  Li5875  1  0.481622  0.293911  0.773513  1
  Li  Li5876  1  0.293911  0.518378  0.226487  1
  Li  Li5877  1  0.481622  0.706089  0.226487  1
  Li  Li5878  1  0.706089  0.518378  0.773513  1
  Li  Li5879  1  0.293911  0.481622  0.773513  1
  Li  Li5880  1  0.226487  0.018378  0.793911  1
  Li  Li5881  1  0.518378  0.273513  0.206089  1
  Li  Li5882  1  0.773513  0.981622  0.793911  1
  Li  Li5883  1  0.481622  0.726487  0.206089  1
  Li  Li5884  1  0.226487  0.981622  0.206089  1
  Li  Li5885  1  0.481622  0.273513  0.793911  1
  Li  Li5886  1  0.773513  0.018378  0.206089  1
  Li  Li5887  1  0.518378  0.726487  0.793911  1
  Li  Li5888  1  0.293911  0.726487  0.018378  1
  Li  Li5889  1  0.226487  0.206089  0.981622  1
  Li  Li5890  1  0.706089  0.273513  0.018378  1
  Li  Li5891  1  0.773513  0.793911  0.981622  1
  Li  Li5892  1  0.293911  0.273513  0.981622  1
  Li  Li5893  1  0.773513  0.206089  0.018378  1
  Li  Li5894  1  0.706089  0.726487  0.981622  1
  Li  Li5895  1  0.226487  0.793911  0.018378  1
  Li  Li5896  1  0.518378  0.793911  0.726487  1
  Li  Li5897  1  0.518378  0.206089  0.273513  1
  Li  Li5898  1  0.706089  0.981622  0.726487  1
  Li  Li5899  1  0.481622  0.793911  0.273513  1
  Li  Li5900  1  0.293911  0.018378  0.726487  1
  Li  Li5901  1  0.481622  0.206089  0.726487  1
  Li  Li5902  1  0.706089  0.018378  0.273513  1
  Li  Li5903  1  0.293911  0.981622  0.273513  1
  Li  Li5904  1  0.726487  0.518378  0.793911  1
  Li  Li5905  1  0.018378  0.773513  0.206089  1
  Li  Li5906  1  0.273513  0.481622  0.793911  1
  Li  Li5907  1  0.981622  0.226487  0.206089  1
  Li  Li5908  1  0.726487  0.481622  0.206089  1
  Li  Li5909  1  0.981622  0.773513  0.793911  1
  Li  Li5910  1  0.273513  0.518378  0.206089  1
  Li  Li5911  1  0.018378  0.226487  0.793911  1
  Li  Li5912  1  0.793911  0.226487  0.018378  1
  Li  Li5913  1  0.726487  0.706089  0.981622  1
  Li  Li5914  1  0.206089  0.773513  0.018378  1
  Li  Li5915  1  0.273513  0.293911  0.981622  1
  Li  Li5916  1  0.793911  0.773513  0.981622  1
  Li  Li5917  1  0.273513  0.706089  0.018378  1
  Li  Li5918  1  0.206089  0.226487  0.981622  1
  Li  Li5919  1  0.726487  0.293911  0.018378  1
  Li  Li5920  1  0.018378  0.293911  0.726487  1
  Li  Li5921  1  0.018378  0.706089  0.273513  1
  Li  Li5922  1  0.206089  0.481622  0.726487  1
  Li  Li5923  1  0.981622  0.293911  0.273513  1
  Li  Li5924  1  0.793911  0.518378  0.726487  1
  Li  Li5925  1  0.981622  0.706089  0.726487  1
  Li  Li5926  1  0.206089  0.518378  0.273513  1
  Li  Li5927  1  0.793911  0.481622  0.273513  1
  Li  Li5928  1  0.726487  0.018378  0.293911  1
  Li  Li5929  1  0.018378  0.273513  0.706089  1
  Li  Li5930  1  0.273513  0.981622  0.293911  1
  Li  Li5931  1  0.981622  0.726487  0.706089  1
  Li  Li5932  1  0.726487  0.981622  0.706089  1
  Li  Li5933  1  0.981622  0.273513  0.293911  1
  Li  Li5934  1  0.273513  0.018378  0.706089  1
  Li  Li5935  1  0.018378  0.726487  0.293911  1
  Li  Li5936  1  0.793911  0.726487  0.518378  1
  Li  Li5937  1  0.726487  0.206089  0.481622  1
  Li  Li5938  1  0.206089  0.273513  0.518378  1
  Li  Li5939  1  0.273513  0.793911  0.481622  1
  Li  Li5940  1  0.793911  0.273513  0.481622  1
  Li  Li5941  1  0.273513  0.206089  0.518378  1
  Li  Li5942  1  0.206089  0.726487  0.481622  1
  Li  Li5943  1  0.726487  0.793911  0.518378  1
  Li  Li5944  1  0.018378  0.793911  0.226487  1
  Li  Li5945  1  0.018378  0.206089  0.773513  1
  Li  Li5946  1  0.206089  0.981622  0.226487  1
  Li  Li5947  1  0.981622  0.793911  0.773513  1
  Li  Li5948  1  0.793911  0.018378  0.226487  1
  Li  Li5949  1  0.981622  0.206089  0.226487  1
  Li  Li5950  1  0.206089  0.018378  0.773513  1
  Li  Li5951  1  0.793911  0.981622  0.773513  1
  Li  Li5952  1  0.291481  0.893078  0.433012  1
  Li  Li5953  1  0.893078  0.708519  0.566988  1
  Li  Li5954  1  0.708519  0.106922  0.433012  1
  Li  Li5955  1  0.106922  0.291481  0.566988  1
  Li  Li5956  1  0.291481  0.106922  0.566988  1
  Li  Li5957  1  0.106922  0.708519  0.433012  1
  Li  Li5958  1  0.708519  0.893078  0.566988  1
  Li  Li5959  1  0.893078  0.291481  0.433012  1
  Li  Li5960  1  0.433012  0.291481  0.893078  1
  Li  Li5961  1  0.291481  0.566988  0.106922  1
  Li  Li5962  1  0.566988  0.708519  0.893078  1
  Li  Li5963  1  0.708519  0.433012  0.106922  1
  Li  Li5964  1  0.433012  0.708519  0.106922  1
  Li  Li5965  1  0.708519  0.566988  0.893078  1
  Li  Li5966  1  0.566988  0.291481  0.106922  1
  Li  Li5967  1  0.291481  0.433012  0.893078  1
  Li  Li5968  1  0.893078  0.433012  0.291481  1
  Li  Li5969  1  0.893078  0.566988  0.708519  1
  Li  Li5970  1  0.566988  0.106922  0.291481  1
  Li  Li5971  1  0.106922  0.433012  0.708519  1
  Li  Li5972  1  0.433012  0.893078  0.291481  1
  Li  Li5973  1  0.106922  0.566988  0.291481  1
  Li  Li5974  1  0.566988  0.893078  0.708519  1
  Li  Li5975  1  0.433012  0.106922  0.708519  1
  Li  Li5976  1  0.291481  0.393078  0.933012  1
  Li  Li5977  1  0.893078  0.208519  0.066988  1
  Li  Li5978  1  0.708519  0.606922  0.933012  1
  Li  Li5979  1  0.106922  0.791481  0.066988  1
  Li  Li5980  1  0.291481  0.606922  0.066988  1
  Li  Li5981  1  0.106922  0.208519  0.933012  1
  Li  Li5982  1  0.708519  0.393078  0.066988  1
  Li  Li5983  1  0.893078  0.791481  0.933012  1
  Li  Li5984  1  0.433012  0.791481  0.393078  1
  Li  Li5985  1  0.291481  0.066988  0.606922  1
  Li  Li5986  1  0.566988  0.208519  0.393078  1
  Li  Li5987  1  0.708519  0.933012  0.606922  1
  Li  Li5988  1  0.433012  0.208519  0.606922  1
  Li  Li5989  1  0.708519  0.066988  0.393078  1
  Li  Li5990  1  0.566988  0.791481  0.606922  1
  Li  Li5991  1  0.291481  0.933012  0.393078  1
  Li  Li5992  1  0.893078  0.933012  0.791481  1
  Li  Li5993  1  0.893078  0.066988  0.208519  1
  Li  Li5994  1  0.566988  0.606922  0.791481  1
  Li  Li5995  1  0.106922  0.933012  0.208519  1
  Li  Li5996  1  0.433012  0.393078  0.791481  1
  Li  Li5997  1  0.106922  0.066988  0.791481  1
  Li  Li5998  1  0.566988  0.393078  0.208519  1
  Li  Li5999  1  0.433012  0.606922  0.208519  1
  Li  Li6000  1  0.791481  0.893078  0.933012  1
  Li  Li6001  1  0.393078  0.708519  0.066988  1
  Li  Li6002  1  0.208519  0.106922  0.933012  1
  Li  Li6003  1  0.606922  0.291481  0.066988  1
  Li  Li6004  1  0.791481  0.106922  0.066988  1
  Li  Li6005  1  0.606922  0.708519  0.933012  1
  Li  Li6006  1  0.208519  0.893078  0.066988  1
  Li  Li6007  1  0.393078  0.291481  0.933012  1
  Li  Li6008  1  0.933012  0.291481  0.393078  1
  Li  Li6009  1  0.791481  0.566988  0.606922  1
  Li  Li6010  1  0.066988  0.708519  0.393078  1
  Li  Li6011  1  0.208519  0.433012  0.606922  1
  Li  Li6012  1  0.933012  0.708519  0.606922  1
  Li  Li6013  1  0.208519  0.566988  0.393078  1
  Li  Li6014  1  0.066988  0.291481  0.606922  1
  Li  Li6015  1  0.791481  0.433012  0.393078  1
  Li  Li6016  1  0.393078  0.433012  0.791481  1
  Li  Li6017  1  0.393078  0.566988  0.208519  1
  Li  Li6018  1  0.066988  0.106922  0.791481  1
  Li  Li6019  1  0.606922  0.433012  0.208519  1
  Li  Li6020  1  0.933012  0.893078  0.791481  1
  Li  Li6021  1  0.606922  0.566988  0.791481  1
  Li  Li6022  1  0.066988  0.893078  0.208519  1
  Li  Li6023  1  0.933012  0.106922  0.208519  1
  Li  Li6024  1  0.791481  0.393078  0.433012  1
  Li  Li6025  1  0.393078  0.208519  0.566988  1
  Li  Li6026  1  0.208519  0.606922  0.433012  1
  Li  Li6027  1  0.606922  0.791481  0.566988  1
  Li  Li6028  1  0.791481  0.606922  0.566988  1
  Li  Li6029  1  0.606922  0.208519  0.433012  1
  Li  Li6030  1  0.208519  0.393078  0.566988  1
  Li  Li6031  1  0.393078  0.791481  0.433012  1
  Li  Li6032  1  0.933012  0.791481  0.893078  1
  Li  Li6033  1  0.791481  0.066988  0.106922  1
  Li  Li6034  1  0.066988  0.208519  0.893078  1
  Li  Li6035  1  0.208519  0.933012  0.106922  1
  Li  Li6036  1  0.933012  0.208519  0.106922  1
  Li  Li6037  1  0.208519  0.066988  0.893078  1
  Li  Li6038  1  0.066988  0.791481  0.106922  1
  Li  Li6039  1  0.791481  0.933012  0.893078  1
  Li  Li6040  1  0.393078  0.933012  0.291481  1
  Li  Li6041  1  0.393078  0.066988  0.708519  1
  Li  Li6042  1  0.066988  0.606922  0.291481  1
  Li  Li6043  1  0.606922  0.933012  0.708519  1
  Li  Li6044  1  0.933012  0.393078  0.291481  1
  Li  Li6045  1  0.606922  0.066988  0.291481  1
  Li  Li6046  1  0.066988  0.393078  0.708519  1
  Li  Li6047  1  0.933012  0.606922  0.708519  1
  Li  Li6048  1  0.196055  0.953066  0.165116  1
  Li  Li6049  1  0.953066  0.803945  0.834884  1
  Li  Li6050  1  0.803945  0.046934  0.165116  1
  Li  Li6051  1  0.046934  0.196055  0.834884  1
  Li  Li6052  1  0.196055  0.046934  0.834884  1
  Li  Li6053  1  0.046934  0.803945  0.165116  1
  Li  Li6054  1  0.803945  0.953066  0.834884  1
  Li  Li6055  1  0.953066  0.196055  0.165116  1
  Li  Li6056  1  0.165116  0.196055  0.953066  1
  Li  Li6057  1  0.196055  0.834884  0.046934  1
  Li  Li6058  1  0.834884  0.803945  0.953066  1
  Li  Li6059  1  0.803945  0.165116  0.046934  1
  Li  Li6060  1  0.165116  0.803945  0.046934  1
  Li  Li6061  1  0.803945  0.834884  0.953066  1
  Li  Li6062  1  0.834884  0.196055  0.046934  1
  Li  Li6063  1  0.196055  0.165116  0.953066  1
  Li  Li6064  1  0.953066  0.165116  0.196055  1
  Li  Li6065  1  0.953066  0.834884  0.803945  1
  Li  Li6066  1  0.834884  0.046934  0.196055  1
  Li  Li6067  1  0.046934  0.165116  0.803945  1
  Li  Li6068  1  0.165116  0.953066  0.196055  1
  Li  Li6069  1  0.046934  0.834884  0.196055  1
  Li  Li6070  1  0.834884  0.953066  0.803945  1
  Li  Li6071  1  0.165116  0.046934  0.803945  1
  Li  Li6072  1  0.196055  0.453066  0.665116  1
  Li  Li6073  1  0.953066  0.303945  0.334884  1
  Li  Li6074  1  0.803945  0.546934  0.665116  1
  Li  Li6075  1  0.046934  0.696055  0.334884  1
  Li  Li6076  1  0.196055  0.546934  0.334884  1
  Li  Li6077  1  0.046934  0.303945  0.665116  1
  Li  Li6078  1  0.803945  0.453066  0.334884  1
  Li  Li6079  1  0.953066  0.696055  0.665116  1
  Li  Li6080  1  0.165116  0.696055  0.453066  1
  Li  Li6081  1  0.196055  0.334884  0.546934  1
  Li  Li6082  1  0.834884  0.303945  0.453066  1
  Li  Li6083  1  0.803945  0.665116  0.546934  1
  Li  Li6084  1  0.165116  0.303945  0.546934  1
  Li  Li6085  1  0.803945  0.334884  0.453066  1
  Li  Li6086  1  0.834884  0.696055  0.546934  1
  Li  Li6087  1  0.196055  0.665116  0.453066  1
  Li  Li6088  1  0.953066  0.665116  0.696055  1
  Li  Li6089  1  0.953066  0.334884  0.303945  1
  Li  Li6090  1  0.834884  0.546934  0.696055  1
  Li  Li6091  1  0.046934  0.665116  0.303945  1
  Li  Li6092  1  0.165116  0.453066  0.696055  1
  Li  Li6093  1  0.046934  0.334884  0.696055  1
  Li  Li6094  1  0.834884  0.453066  0.303945  1
  Li  Li6095  1  0.165116  0.546934  0.303945  1
  Li  Li6096  1  0.696055  0.953066  0.665116  1
  Li  Li6097  1  0.453066  0.803945  0.334884  1
  Li  Li6098  1  0.303945  0.046934  0.665116  1
  Li  Li6099  1  0.546934  0.196055  0.334884  1
  Li  Li6100  1  0.696055  0.046934  0.334884  1
  Li  Li6101  1  0.546934  0.803945  0.665116  1
  Li  Li6102  1  0.303945  0.953066  0.334884  1
  Li  Li6103  1  0.453066  0.196055  0.665116  1
  Li  Li6104  1  0.665116  0.196055  0.453066  1
  Li  Li6105  1  0.696055  0.834884  0.546934  1
  Li  Li6106  1  0.334884  0.803945  0.453066  1
  Li  Li6107  1  0.303945  0.165116  0.546934  1
  Li  Li6108  1  0.665116  0.803945  0.546934  1
  Li  Li6109  1  0.303945  0.834884  0.453066  1
  Li  Li6110  1  0.334884  0.196055  0.546934  1
  Li  Li6111  1  0.696055  0.165116  0.453066  1
  Li  Li6112  1  0.453066  0.165116  0.696055  1
  Li  Li6113  1  0.453066  0.834884  0.303945  1
  Li  Li6114  1  0.334884  0.046934  0.696055  1
  Li  Li6115  1  0.546934  0.165116  0.303945  1
  Li  Li6116  1  0.665116  0.953066  0.696055  1
  Li  Li6117  1  0.546934  0.834884  0.696055  1
  Li  Li6118  1  0.334884  0.953066  0.303945  1
  Li  Li6119  1  0.665116  0.046934  0.303945  1
  Li  Li6120  1  0.696055  0.453066  0.165116  1
  Li  Li6121  1  0.453066  0.303945  0.834884  1
  Li  Li6122  1  0.303945  0.546934  0.165116  1
  Li  Li6123  1  0.546934  0.696055  0.834884  1
  Li  Li6124  1  0.696055  0.546934  0.834884  1
  Li  Li6125  1  0.546934  0.303945  0.165116  1
  Li  Li6126  1  0.303945  0.453066  0.834884  1
  Li  Li6127  1  0.453066  0.696055  0.165116  1
  Li  Li6128  1  0.665116  0.696055  0.953066  1
  Li  Li6129  1  0.696055  0.334884  0.046934  1
  Li  Li6130  1  0.334884  0.303945  0.953066  1
  Li  Li6131  1  0.303945  0.665116  0.046934  1
  Li  Li6132  1  0.665116  0.303945  0.046934  1
  Li  Li6133  1  0.303945  0.334884  0.953066  1
  Li  Li6134  1  0.334884  0.696055  0.046934  1
  Li  Li6135  1  0.696055  0.665116  0.953066  1
  Li  Li6136  1  0.453066  0.665116  0.196055  1
  Li  Li6137  1  0.453066  0.334884  0.803945  1
  Li  Li6138  1  0.334884  0.546934  0.196055  1
  Li  Li6139  1  0.546934  0.665116  0.803945  1
  Li  Li6140  1  0.665116  0.453066  0.196055  1
  Li  Li6141  1  0.546934  0.334884  0.196055  1
  Li  Li6142  1  0.334884  0.453066  0.803945  1
  Li  Li6143  1  0.665116  0.546934  0.803945  1
  Li  Li6144  1  0.478348  0.797851  0.306064  1
  Li  Li6145  1  0.797851  0.521652  0.693936  1
  Li  Li6146  1  0.521652  0.202149  0.306064  1
  Li  Li6147  1  0.202149  0.478348  0.693936  1
  Li  Li6148  1  0.478348  0.202149  0.693936  1
  Li  Li6149  1  0.202149  0.521652  0.306064  1
  Li  Li6150  1  0.521652  0.797851  0.693936  1
  Li  Li6151  1  0.797851  0.478348  0.306064  1
  Li  Li6152  1  0.306064  0.478348  0.797851  1
  Li  Li6153  1  0.478348  0.693936  0.202149  1
  Li  Li6154  1  0.693936  0.521652  0.797851  1
  Li  Li6155  1  0.521652  0.306064  0.202149  1
  Li  Li6156  1  0.306064  0.521652  0.202149  1
  Li  Li6157  1  0.521652  0.693936  0.797851  1
  Li  Li6158  1  0.693936  0.478348  0.202149  1
  Li  Li6159  1  0.478348  0.306064  0.797851  1
  Li  Li6160  1  0.797851  0.306064  0.478348  1
  Li  Li6161  1  0.797851  0.693936  0.521652  1
  Li  Li6162  1  0.693936  0.202149  0.478348  1
  Li  Li6163  1  0.202149  0.306064  0.521652  1
  Li  Li6164  1  0.306064  0.797851  0.478348  1
  Li  Li6165  1  0.202149  0.693936  0.478348  1
  Li  Li6166  1  0.693936  0.797851  0.521652  1
  Li  Li6167  1  0.306064  0.202149  0.521652  1
  Li  Li6168  1  0.478348  0.297851  0.806064  1
  Li  Li6169  1  0.797851  0.021652  0.193936  1
  Li  Li6170  1  0.521652  0.702149  0.806064  1
  Li  Li6171  1  0.202149  0.978348  0.193936  1
  Li  Li6172  1  0.478348  0.702149  0.193936  1
  Li  Li6173  1  0.202149  0.021652  0.806064  1
  Li  Li6174  1  0.521652  0.297851  0.193936  1
  Li  Li6175  1  0.797851  0.978348  0.806064  1
  Li  Li6176  1  0.306064  0.978348  0.297851  1
  Li  Li6177  1  0.478348  0.193936  0.702149  1
  Li  Li6178  1  0.693936  0.021652  0.297851  1
  Li  Li6179  1  0.521652  0.806064  0.702149  1
  Li  Li6180  1  0.306064  0.021652  0.702149  1
  Li  Li6181  1  0.521652  0.193936  0.297851  1
  Li  Li6182  1  0.693936  0.978348  0.702149  1
  Li  Li6183  1  0.478348  0.806064  0.297851  1
  Li  Li6184  1  0.797851  0.806064  0.978348  1
  Li  Li6185  1  0.797851  0.193936  0.021652  1
  Li  Li6186  1  0.693936  0.702149  0.978348  1
  Li  Li6187  1  0.202149  0.806064  0.021652  1
  Li  Li6188  1  0.306064  0.297851  0.978348  1
  Li  Li6189  1  0.202149  0.193936  0.978348  1
  Li  Li6190  1  0.693936  0.297851  0.021652  1
  Li  Li6191  1  0.306064  0.702149  0.021652  1
  Li  Li6192  1  0.978348  0.797851  0.806064  1
  Li  Li6193  1  0.297851  0.521652  0.193936  1
  Li  Li6194  1  0.021652  0.202149  0.806064  1
  Li  Li6195  1  0.702149  0.478348  0.193936  1
  Li  Li6196  1  0.978348  0.202149  0.193936  1
  Li  Li6197  1  0.702149  0.521652  0.806064  1
  Li  Li6198  1  0.021652  0.797851  0.193936  1
  Li  Li6199  1  0.297851  0.478348  0.806064  1
  Li  Li6200  1  0.806064  0.478348  0.297851  1
  Li  Li6201  1  0.978348  0.693936  0.702149  1
  Li  Li6202  1  0.193936  0.521652  0.297851  1
  Li  Li6203  1  0.021652  0.306064  0.702149  1
  Li  Li6204  1  0.806064  0.521652  0.702149  1
  Li  Li6205  1  0.021652  0.693936  0.297851  1
  Li  Li6206  1  0.193936  0.478348  0.702149  1
  Li  Li6207  1  0.978348  0.306064  0.297851  1
  Li  Li6208  1  0.297851  0.306064  0.978348  1
  Li  Li6209  1  0.297851  0.693936  0.021652  1
  Li  Li6210  1  0.193936  0.202149  0.978348  1
  Li  Li6211  1  0.702149  0.306064  0.021652  1
  Li  Li6212  1  0.806064  0.797851  0.978348  1
  Li  Li6213  1  0.702149  0.693936  0.978348  1
  Li  Li6214  1  0.193936  0.797851  0.021652  1
  Li  Li6215  1  0.806064  0.202149  0.021652  1
  Li  Li6216  1  0.978348  0.297851  0.306064  1
  Li  Li6217  1  0.297851  0.021652  0.693936  1
  Li  Li6218  1  0.021652  0.702149  0.306064  1
  Li  Li6219  1  0.702149  0.978348  0.693936  1
  Li  Li6220  1  0.978348  0.702149  0.693936  1
  Li  Li6221  1  0.702149  0.021652  0.306064  1
  Li  Li6222  1  0.021652  0.297851  0.693936  1
  Li  Li6223  1  0.297851  0.978348  0.306064  1
  Li  Li6224  1  0.806064  0.978348  0.797851  1
  Li  Li6225  1  0.978348  0.193936  0.202149  1
  Li  Li6226  1  0.193936  0.021652  0.797851  1
  Li  Li6227  1  0.021652  0.806064  0.202149  1
  Li  Li6228  1  0.806064  0.021652  0.202149  1
  Li  Li6229  1  0.021652  0.193936  0.797851  1
  Li  Li6230  1  0.193936  0.978348  0.202149  1
  Li  Li6231  1  0.978348  0.806064  0.797851  1
  Li  Li6232  1  0.297851  0.806064  0.478348  1
  Li  Li6233  1  0.297851  0.193936  0.521652  1
  Li  Li6234  1  0.193936  0.702149  0.478348  1
  Li  Li6235  1  0.702149  0.806064  0.521652  1
  Li  Li6236  1  0.806064  0.297851  0.478348  1
  Li  Li6237  1  0.702149  0.193936  0.478348  1
  Li  Li6238  1  0.193936  0.297851  0.521652  1
  Li  Li6239  1  0.806064  0.702149  0.521652  1
  Li  Li6240  1  0.283893  0.515555  0.191598  1
  Li  Li6241  1  0.515555  0.716107  0.808402  1
  Li  Li6242  1  0.716107  0.484445  0.191598  1
  Li  Li6243  1  0.484445  0.283893  0.808402  1
  Li  Li6244  1  0.283893  0.484445  0.808402  1
  Li  Li6245  1  0.484445  0.716107  0.191598  1
  Li  Li6246  1  0.716107  0.515555  0.808402  1
  Li  Li6247  1  0.515555  0.283893  0.191598  1
  Li  Li6248  1  0.191598  0.283893  0.515555  1
  Li  Li6249  1  0.283893  0.808402  0.484445  1
  Li  Li6250  1  0.808402  0.716107  0.515555  1
  Li  Li6251  1  0.716107  0.191598  0.484445  1
  Li  Li6252  1  0.191598  0.716107  0.484445  1
  Li  Li6253  1  0.716107  0.808402  0.515555  1
  Li  Li6254  1  0.808402  0.283893  0.484445  1
  Li  Li6255  1  0.283893  0.191598  0.515555  1
  Li  Li6256  1  0.515555  0.191598  0.283893  1
  Li  Li6257  1  0.515555  0.808402  0.716107  1
  Li  Li6258  1  0.808402  0.484445  0.283893  1
  Li  Li6259  1  0.484445  0.191598  0.716107  1
  Li  Li6260  1  0.191598  0.515555  0.283893  1
  Li  Li6261  1  0.484445  0.808402  0.283893  1
  Li  Li6262  1  0.808402  0.515555  0.716107  1
  Li  Li6263  1  0.191598  0.484445  0.716107  1
  Li  Li6264  1  0.283893  0.015555  0.691598  1
  Li  Li6265  1  0.515555  0.216107  0.308402  1
  Li  Li6266  1  0.716107  0.984445  0.691598  1
  Li  Li6267  1  0.484445  0.783893  0.308402  1
  Li  Li6268  1  0.283893  0.984445  0.308402  1
  Li  Li6269  1  0.484445  0.216107  0.691598  1
  Li  Li6270  1  0.716107  0.015555  0.308402  1
  Li  Li6271  1  0.515555  0.783893  0.691598  1
  Li  Li6272  1  0.191598  0.783893  0.015555  1
  Li  Li6273  1  0.283893  0.308402  0.984445  1
  Li  Li6274  1  0.808402  0.216107  0.015555  1
  Li  Li6275  1  0.716107  0.691598  0.984445  1
  Li  Li6276  1  0.191598  0.216107  0.984445  1
  Li  Li6277  1  0.716107  0.308402  0.015555  1
  Li  Li6278  1  0.808402  0.783893  0.984445  1
  Li  Li6279  1  0.283893  0.691598  0.015555  1
  Li  Li6280  1  0.515555  0.691598  0.783893  1
  Li  Li6281  1  0.515555  0.308402  0.216107  1
  Li  Li6282  1  0.808402  0.984445  0.783893  1
  Li  Li6283  1  0.484445  0.691598  0.216107  1
  Li  Li6284  1  0.191598  0.015555  0.783893  1
  Li  Li6285  1  0.484445  0.308402  0.783893  1
  Li  Li6286  1  0.808402  0.015555  0.216107  1
  Li  Li6287  1  0.191598  0.984445  0.216107  1
  Li  Li6288  1  0.783893  0.515555  0.691598  1
  Li  Li6289  1  0.015555  0.716107  0.308402  1
  Li  Li6290  1  0.216107  0.484445  0.691598  1
  Li  Li6291  1  0.984445  0.283893  0.308402  1
  Li  Li6292  1  0.783893  0.484445  0.308402  1
  Li  Li6293  1  0.984445  0.716107  0.691598  1
  Li  Li6294  1  0.216107  0.515555  0.308402  1
  Li  Li6295  1  0.015555  0.283893  0.691598  1
  Li  Li6296  1  0.691598  0.283893  0.015555  1
  Li  Li6297  1  0.783893  0.808402  0.984445  1
  Li  Li6298  1  0.308402  0.716107  0.015555  1
  Li  Li6299  1  0.216107  0.191598  0.984445  1
  Li  Li6300  1  0.691598  0.716107  0.984445  1
  Li  Li6301  1  0.216107  0.808402  0.015555  1
  Li  Li6302  1  0.308402  0.283893  0.984445  1
  Li  Li6303  1  0.783893  0.191598  0.015555  1
  Li  Li6304  1  0.015555  0.191598  0.783893  1
  Li  Li6305  1  0.015555  0.808402  0.216107  1
  Li  Li6306  1  0.308402  0.484445  0.783893  1
  Li  Li6307  1  0.984445  0.191598  0.216107  1
  Li  Li6308  1  0.691598  0.515555  0.783893  1
  Li  Li6309  1  0.984445  0.808402  0.783893  1
  Li  Li6310  1  0.308402  0.515555  0.216107  1
  Li  Li6311  1  0.691598  0.484445  0.216107  1
  Li  Li6312  1  0.783893  0.015555  0.191598  1
  Li  Li6313  1  0.015555  0.216107  0.808402  1
  Li  Li6314  1  0.216107  0.984445  0.191598  1
  Li  Li6315  1  0.984445  0.783893  0.808402  1
  Li  Li6316  1  0.783893  0.984445  0.808402  1
  Li  Li6317  1  0.984445  0.216107  0.191598  1
  Li  Li6318  1  0.216107  0.015555  0.808402  1
  Li  Li6319  1  0.015555  0.783893  0.191598  1
  Li  Li6320  1  0.691598  0.783893  0.515555  1
  Li  Li6321  1  0.783893  0.308402  0.484445  1
  Li  Li6322  1  0.308402  0.216107  0.515555  1
  Li  Li6323  1  0.216107  0.691598  0.484445  1
  Li  Li6324  1  0.691598  0.216107  0.484445  1
  Li  Li6325  1  0.216107  0.308402  0.515555  1
  Li  Li6326  1  0.308402  0.783893  0.484445  1
  Li  Li6327  1  0.783893  0.691598  0.515555  1
  Li  Li6328  1  0.015555  0.691598  0.283893  1
  Li  Li6329  1  0.015555  0.308402  0.716107  1
  Li  Li6330  1  0.308402  0.984445  0.283893  1
  Li  Li6331  1  0.984445  0.691598  0.716107  1
  Li  Li6332  1  0.691598  0.015555  0.283893  1
  Li  Li6333  1  0.984445  0.308402  0.283893  1
  Li  Li6334  1  0.308402  0.015555  0.716107  1
  Li  Li6335  1  0.691598  0.984445  0.716107  1
  Li  Li6336  1  0.224134  0.503605  0.274686  1
  Li  Li6337  1  0.503605  0.775867  0.725314  1
  Li  Li6338  1  0.775867  0.496395  0.274686  1
  Li  Li6339  1  0.496395  0.224134  0.725314  1
  Li  Li6340  1  0.224134  0.496395  0.725314  1
  Li  Li6341  1  0.496395  0.775867  0.274686  1
  Li  Li6342  1  0.775867  0.503605  0.725314  1
  Li  Li6343  1  0.503605  0.224134  0.274686  1
  Li  Li6344  1  0.274686  0.224134  0.503605  1
  Li  Li6345  1  0.224134  0.725314  0.496395  1
  Li  Li6346  1  0.725314  0.775867  0.503605  1
  Li  Li6347  1  0.775867  0.274686  0.496395  1
  Li  Li6348  1  0.274686  0.775867  0.496395  1
  Li  Li6349  1  0.775867  0.725314  0.503605  1
  Li  Li6350  1  0.725314  0.224134  0.496395  1
  Li  Li6351  1  0.224134  0.274686  0.503605  1
  Li  Li6352  1  0.503605  0.274686  0.224134  1
  Li  Li6353  1  0.503605  0.725314  0.775867  1
  Li  Li6354  1  0.725314  0.496395  0.224134  1
  Li  Li6355  1  0.496395  0.274686  0.775867  1
  Li  Li6356  1  0.274686  0.503605  0.224134  1
  Li  Li6357  1  0.496395  0.725314  0.224134  1
  Li  Li6358  1  0.725314  0.503605  0.775867  1
  Li  Li6359  1  0.274686  0.496395  0.775867  1
  Li  Li6360  1  0.224134  0.003605  0.774686  1
  Li  Li6361  1  0.503605  0.275867  0.225314  1
  Li  Li6362  1  0.775867  0.996395  0.774686  1
  Li  Li6363  1  0.496395  0.724133  0.225314  1
  Li  Li6364  1  0.224134  0.996395  0.225314  1
  Li  Li6365  1  0.496395  0.275867  0.774686  1
  Li  Li6366  1  0.775867  0.003605  0.225314  1
  Li  Li6367  1  0.503605  0.724133  0.774686  1
  Li  Li6368  1  0.274686  0.724133  0.003605  1
  Li  Li6369  1  0.224134  0.225314  0.996395  1
  Li  Li6370  1  0.725314  0.275867  0.003605  1
  Li  Li6371  1  0.775867  0.774686  0.996395  1
  Li  Li6372  1  0.274686  0.275867  0.996395  1
  Li  Li6373  1  0.775867  0.225314  0.003605  1
  Li  Li6374  1  0.725314  0.724133  0.996395  1
  Li  Li6375  1  0.224134  0.774686  0.003605  1
  Li  Li6376  1  0.503605  0.774686  0.724133  1
  Li  Li6377  1  0.503605  0.225314  0.275867  1
  Li  Li6378  1  0.725314  0.996395  0.724133  1
  Li  Li6379  1  0.496395  0.774686  0.275867  1
  Li  Li6380  1  0.274686  0.003605  0.724133  1
  Li  Li6381  1  0.496395  0.225314  0.724133  1
  Li  Li6382  1  0.725314  0.003605  0.275867  1
  Li  Li6383  1  0.274686  0.996395  0.275867  1
  Li  Li6384  1  0.724133  0.503605  0.774686  1
  Li  Li6385  1  0.003605  0.775867  0.225314  1
  Li  Li6386  1  0.275867  0.496395  0.774686  1
  Li  Li6387  1  0.996395  0.224134  0.225314  1
  Li  Li6388  1  0.724133  0.496395  0.225314  1
  Li  Li6389  1  0.996395  0.775867  0.774686  1
  Li  Li6390  1  0.275867  0.503605  0.225314  1
  Li  Li6391  1  0.003605  0.224134  0.774686  1
  Li  Li6392  1  0.774686  0.224134  0.003605  1
  Li  Li6393  1  0.724133  0.725314  0.996395  1
  Li  Li6394  1  0.225314  0.775867  0.003605  1
  Li  Li6395  1  0.275867  0.274686  0.996395  1
  Li  Li6396  1  0.774686  0.775867  0.996395  1
  Li  Li6397  1  0.275867  0.725314  0.003605  1
  Li  Li6398  1  0.225314  0.224134  0.996395  1
  Li  Li6399  1  0.724133  0.274686  0.003605  1
  Li  Li6400  1  0.003605  0.274686  0.724133  1
  Li  Li6401  1  0.003605  0.725314  0.275867  1
  Li  Li6402  1  0.225314  0.496395  0.724133  1
  Li  Li6403  1  0.996395  0.274686  0.275867  1
  Li  Li6404  1  0.774686  0.503605  0.724133  1
  Li  Li6405  1  0.996395  0.725314  0.724133  1
  Li  Li6406  1  0.225314  0.503605  0.275867  1
  Li  Li6407  1  0.774686  0.496395  0.275867  1
  Li  Li6408  1  0.724133  0.003605  0.274686  1
  Li  Li6409  1  0.003605  0.275867  0.725314  1
  Li  Li6410  1  0.275867  0.996395  0.274686  1
  Li  Li6411  1  0.996395  0.724133  0.725314  1
  Li  Li6412  1  0.724133  0.996395  0.725314  1
  Li  Li6413  1  0.996395  0.275867  0.274686  1
  Li  Li6414  1  0.275867  0.003605  0.725314  1
  Li  Li6415  1  0.003605  0.724133  0.274686  1
  Li  Li6416  1  0.774686  0.724133  0.503605  1
  Li  Li6417  1  0.724133  0.225314  0.496395  1
  Li  Li6418  1  0.225314  0.275867  0.503605  1
  Li  Li6419  1  0.275867  0.774686  0.496395  1
  Li  Li6420  1  0.774686  0.275867  0.496395  1
  Li  Li6421  1  0.275867  0.225314  0.503605  1
  Li  Li6422  1  0.225314  0.724133  0.496395  1
  Li  Li6423  1  0.724133  0.774686  0.503605  1
  Li  Li6424  1  0.003605  0.774686  0.224134  1
  Li  Li6425  1  0.003605  0.225314  0.775867  1
  Li  Li6426  1  0.225314  0.996395  0.224134  1
  Li  Li6427  1  0.996395  0.774686  0.775867  1
  Li  Li6428  1  0.774686  0.003605  0.224134  1
  Li  Li6429  1  0.996395  0.225314  0.224134  1
  Li  Li6430  1  0.225314  0.003605  0.775867  1
  Li  Li6431  1  0.774686  0.996395  0.775867  1
  Li  Li6432  1  0.415542  0.710489  0.087571  1
  Li  Li6433  1  0.710489  0.584458  0.912429  1
  Li  Li6434  1  0.584458  0.289511  0.087571  1
  Li  Li6435  1  0.289511  0.415542  0.912429  1
  Li  Li6436  1  0.415542  0.289511  0.912429  1
  Li  Li6437  1  0.289511  0.584458  0.087571  1
  Li  Li6438  1  0.584458  0.710489  0.912429  1
  Li  Li6439  1  0.710489  0.415542  0.087571  1
  Li  Li6440  1  0.087571  0.415542  0.710489  1
  Li  Li6441  1  0.415542  0.912429  0.289511  1
  Li  Li6442  1  0.912429  0.584458  0.710489  1
  Li  Li6443  1  0.584458  0.087571  0.289511  1
  Li  Li6444  1  0.087571  0.584458  0.289511  1
  Li  Li6445  1  0.584458  0.912429  0.710489  1
  Li  Li6446  1  0.912429  0.415542  0.289511  1
  Li  Li6447  1  0.415542  0.087571  0.710489  1
  Li  Li6448  1  0.710489  0.087571  0.415542  1
  Li  Li6449  1  0.710489  0.912429  0.584458  1
  Li  Li6450  1  0.912429  0.289511  0.415542  1
  Li  Li6451  1  0.289511  0.087571  0.584458  1
  Li  Li6452  1  0.087571  0.710489  0.415542  1
  Li  Li6453  1  0.289511  0.912429  0.415542  1
  Li  Li6454  1  0.912429  0.710489  0.584458  1
  Li  Li6455  1  0.087571  0.289511  0.584458  1
  Li  Li6456  1  0.415542  0.210489  0.587571  1
  Li  Li6457  1  0.710489  0.084458  0.412429  1
  Li  Li6458  1  0.584458  0.789511  0.587571  1
  Li  Li6459  1  0.289511  0.915542  0.412429  1
  Li  Li6460  1  0.415542  0.789511  0.412429  1
  Li  Li6461  1  0.289511  0.084458  0.587571  1
  Li  Li6462  1  0.584458  0.210489  0.412429  1
  Li  Li6463  1  0.710489  0.915542  0.587571  1
  Li  Li6464  1  0.087571  0.915542  0.210489  1
  Li  Li6465  1  0.415542  0.412429  0.789511  1
  Li  Li6466  1  0.912429  0.084458  0.210489  1
  Li  Li6467  1  0.584458  0.587571  0.789511  1
  Li  Li6468  1  0.087571  0.084458  0.789511  1
  Li  Li6469  1  0.584458  0.412429  0.210489  1
  Li  Li6470  1  0.912429  0.915542  0.789511  1
  Li  Li6471  1  0.415542  0.587571  0.210489  1
  Li  Li6472  1  0.710489  0.587571  0.915542  1
  Li  Li6473  1  0.710489  0.412429  0.084458  1
  Li  Li6474  1  0.912429  0.789511  0.915542  1
  Li  Li6475  1  0.289511  0.587571  0.084458  1
  Li  Li6476  1  0.087571  0.210489  0.915542  1
  Li  Li6477  1  0.289511  0.412429  0.915542  1
  Li  Li6478  1  0.912429  0.210489  0.084458  1
  Li  Li6479  1  0.087571  0.789511  0.084458  1
  Li  Li6480  1  0.915542  0.710489  0.587571  1
  Li  Li6481  1  0.210489  0.584458  0.412429  1
  Li  Li6482  1  0.084458  0.289511  0.587571  1
  Li  Li6483  1  0.789511  0.415542  0.412429  1
  Li  Li6484  1  0.915542  0.289511  0.412429  1
  Li  Li6485  1  0.789511  0.584458  0.587571  1
  Li  Li6486  1  0.084458  0.710489  0.412429  1
  Li  Li6487  1  0.210489  0.415542  0.587571  1
  Li  Li6488  1  0.587571  0.415542  0.210489  1
  Li  Li6489  1  0.915542  0.912429  0.789511  1
  Li  Li6490  1  0.412429  0.584458  0.210489  1
  Li  Li6491  1  0.084458  0.087571  0.789511  1
  Li  Li6492  1  0.587571  0.584458  0.789511  1
  Li  Li6493  1  0.084458  0.912429  0.210489  1
  Li  Li6494  1  0.412429  0.415542  0.789511  1
  Li  Li6495  1  0.915542  0.087571  0.210489  1
  Li  Li6496  1  0.210489  0.087571  0.915542  1
  Li  Li6497  1  0.210489  0.912429  0.084458  1
  Li  Li6498  1  0.412429  0.289511  0.915542  1
  Li  Li6499  1  0.789511  0.087571  0.084458  1
  Li  Li6500  1  0.587571  0.710489  0.915542  1
  Li  Li6501  1  0.789511  0.912429  0.915542  1
  Li  Li6502  1  0.412429  0.710489  0.084458  1
  Li  Li6503  1  0.587571  0.289511  0.084458  1
  Li  Li6504  1  0.915542  0.210489  0.087571  1
  Li  Li6505  1  0.210489  0.084458  0.912429  1
  Li  Li6506  1  0.084458  0.789511  0.087571  1
  Li  Li6507  1  0.789511  0.915542  0.912429  1
  Li  Li6508  1  0.915542  0.789511  0.912429  1
  Li  Li6509  1  0.789511  0.084458  0.087571  1
  Li  Li6510  1  0.084458  0.210489  0.912429  1
  Li  Li6511  1  0.210489  0.915542  0.087571  1
  Li  Li6512  1  0.587571  0.915542  0.710489  1
  Li  Li6513  1  0.915542  0.412429  0.289511  1
  Li  Li6514  1  0.412429  0.084458  0.710489  1
  Li  Li6515  1  0.084458  0.587571  0.289511  1
  Li  Li6516  1  0.587571  0.084458  0.289511  1
  Li  Li6517  1  0.084458  0.412429  0.710489  1
  Li  Li6518  1  0.412429  0.915542  0.289511  1
  Li  Li6519  1  0.915542  0.587571  0.710489  1
  Li  Li6520  1  0.210489  0.587571  0.415542  1
  Li  Li6521  1  0.210489  0.412429  0.584458  1
  Li  Li6522  1  0.412429  0.789511  0.415542  1
  Li  Li6523  1  0.789511  0.587571  0.584458  1
  Li  Li6524  1  0.587571  0.210489  0.415542  1
  Li  Li6525  1  0.789511  0.412429  0.415542  1
  Li  Li6526  1  0.412429  0.210489  0.584458  1
  Li  Li6527  1  0.587571  0.789511  0.584458  1
  Li  Li6528  1  0.282184  0.977945  0.289713  1
  Li  Li6529  1  0.977945  0.717816  0.710287  1
  Li  Li6530  1  0.717816  0.022055  0.289713  1
  Li  Li6531  1  0.022055  0.282184  0.710287  1
  Li  Li6532  1  0.282184  0.022055  0.710287  1
  Li  Li6533  1  0.022055  0.717816  0.289713  1
  Li  Li6534  1  0.717816  0.977945  0.710287  1
  Li  Li6535  1  0.977945  0.282184  0.289713  1
  Li  Li6536  1  0.289713  0.282184  0.977945  1
  Li  Li6537  1  0.282184  0.710287  0.022055  1
  Li  Li6538  1  0.710287  0.717816  0.977945  1
  Li  Li6539  1  0.717816  0.289713  0.022055  1
  Li  Li6540  1  0.289713  0.717816  0.022055  1
  Li  Li6541  1  0.717816  0.710287  0.977945  1
  Li  Li6542  1  0.710287  0.282184  0.022055  1
  Li  Li6543  1  0.282184  0.289713  0.977945  1
  Li  Li6544  1  0.977945  0.289713  0.282184  1
  Li  Li6545  1  0.977945  0.710287  0.717816  1
  Li  Li6546  1  0.710287  0.022055  0.282184  1
  Li  Li6547  1  0.022055  0.289713  0.717816  1
  Li  Li6548  1  0.289713  0.977945  0.282184  1
  Li  Li6549  1  0.022055  0.710287  0.282184  1
  Li  Li6550  1  0.710287  0.977945  0.717816  1
  Li  Li6551  1  0.289713  0.022055  0.717816  1
  Li  Li6552  1  0.282184  0.477945  0.789713  1
  Li  Li6553  1  0.977945  0.217816  0.210287  1
  Li  Li6554  1  0.717816  0.522055  0.789713  1
  Li  Li6555  1  0.022055  0.782184  0.210287  1
  Li  Li6556  1  0.282184  0.522055  0.210287  1
  Li  Li6557  1  0.022055  0.217816  0.789713  1
  Li  Li6558  1  0.717816  0.477945  0.210287  1
  Li  Li6559  1  0.977945  0.782184  0.789713  1
  Li  Li6560  1  0.289713  0.782184  0.477945  1
  Li  Li6561  1  0.282184  0.210287  0.522055  1
  Li  Li6562  1  0.710287  0.217816  0.477945  1
  Li  Li6563  1  0.717816  0.789713  0.522055  1
  Li  Li6564  1  0.289713  0.217816  0.522055  1
  Li  Li6565  1  0.717816  0.210287  0.477945  1
  Li  Li6566  1  0.710287  0.782184  0.522055  1
  Li  Li6567  1  0.282184  0.789713  0.477945  1
  Li  Li6568  1  0.977945  0.789713  0.782184  1
  Li  Li6569  1  0.977945  0.210287  0.217816  1
  Li  Li6570  1  0.710287  0.522055  0.782184  1
  Li  Li6571  1  0.022055  0.789713  0.217816  1
  Li  Li6572  1  0.289713  0.477945  0.782184  1
  Li  Li6573  1  0.022055  0.210287  0.782184  1
  Li  Li6574  1  0.710287  0.477945  0.217816  1
  Li  Li6575  1  0.289713  0.522055  0.217816  1
  Li  Li6576  1  0.782184  0.977945  0.789713  1
  Li  Li6577  1  0.477945  0.717816  0.210287  1
  Li  Li6578  1  0.217816  0.022055  0.789713  1
  Li  Li6579  1  0.522055  0.282184  0.210287  1
  Li  Li6580  1  0.782184  0.022055  0.210287  1
  Li  Li6581  1  0.522055  0.717816  0.789713  1
  Li  Li6582  1  0.217816  0.977945  0.210287  1
  Li  Li6583  1  0.477945  0.282184  0.789713  1
  Li  Li6584  1  0.789713  0.282184  0.477945  1
  Li  Li6585  1  0.782184  0.710287  0.522055  1
  Li  Li6586  1  0.210287  0.717816  0.477945  1
  Li  Li6587  1  0.217816  0.289713  0.522055  1
  Li  Li6588  1  0.789713  0.717816  0.522055  1
  Li  Li6589  1  0.217816  0.710287  0.477945  1
  Li  Li6590  1  0.210287  0.282184  0.522055  1
  Li  Li6591  1  0.782184  0.289713  0.477945  1
  Li  Li6592  1  0.477945  0.289713  0.782184  1
  Li  Li6593  1  0.477945  0.710287  0.217816  1
  Li  Li6594  1  0.210287  0.022055  0.782184  1
  Li  Li6595  1  0.522055  0.289713  0.217816  1
  Li  Li6596  1  0.789713  0.977945  0.782184  1
  Li  Li6597  1  0.522055  0.710287  0.782184  1
  Li  Li6598  1  0.210287  0.977945  0.217816  1
  Li  Li6599  1  0.789713  0.022055  0.217816  1
  Li  Li6600  1  0.782184  0.477945  0.289713  1
  Li  Li6601  1  0.477945  0.217816  0.710287  1
  Li  Li6602  1  0.217816  0.522055  0.289713  1
  Li  Li6603  1  0.522055  0.782184  0.710287  1
  Li  Li6604  1  0.782184  0.522055  0.710287  1
  Li  Li6605  1  0.522055  0.217816  0.289713  1
  Li  Li6606  1  0.217816  0.477945  0.710287  1
  Li  Li6607  1  0.477945  0.782184  0.289713  1
  Li  Li6608  1  0.789713  0.782184  0.977945  1
  Li  Li6609  1  0.782184  0.210287  0.022055  1
  Li  Li6610  1  0.210287  0.217816  0.977945  1
  Li  Li6611  1  0.217816  0.789713  0.022055  1
  Li  Li6612  1  0.789713  0.217816  0.022055  1
  Li  Li6613  1  0.217816  0.210287  0.977945  1
  Li  Li6614  1  0.210287  0.782184  0.022055  1
  Li  Li6615  1  0.782184  0.789713  0.977945  1
  Li  Li6616  1  0.477945  0.789713  0.282184  1
  Li  Li6617  1  0.477945  0.210287  0.717816  1
  Li  Li6618  1  0.210287  0.522055  0.282184  1
  Li  Li6619  1  0.522055  0.789713  0.717816  1
  Li  Li6620  1  0.789713  0.477945  0.282184  1
  Li  Li6621  1  0.522055  0.210287  0.282184  1
  Li  Li6622  1  0.210287  0.477945  0.717816  1
  Li  Li6623  1  0.789713  0.522055  0.717816  1
  Li  Li6624  1  0.099280  0.773056  0.088876  1
  Li  Li6625  1  0.773056  0.900720  0.911124  1
  Li  Li6626  1  0.900720  0.226944  0.088876  1
  Li  Li6627  1  0.226944  0.099280  0.911124  1
  Li  Li6628  1  0.099280  0.226944  0.911124  1
  Li  Li6629  1  0.226944  0.900720  0.088876  1
  Li  Li6630  1  0.900720  0.773056  0.911124  1
  Li  Li6631  1  0.773056  0.099280  0.088876  1
  Li  Li6632  1  0.088876  0.099280  0.773056  1
  Li  Li6633  1  0.099280  0.911124  0.226944  1
  Li  Li6634  1  0.911124  0.900720  0.773056  1
  Li  Li6635  1  0.900720  0.088876  0.226944  1
  Li  Li6636  1  0.088876  0.900720  0.226944  1
  Li  Li6637  1  0.900720  0.911124  0.773056  1
  Li  Li6638  1  0.911124  0.099280  0.226944  1
  Li  Li6639  1  0.099280  0.088876  0.773056  1
  Li  Li6640  1  0.773056  0.088876  0.099280  1
  Li  Li6641  1  0.773056  0.911124  0.900720  1
  Li  Li6642  1  0.911124  0.226944  0.099280  1
  Li  Li6643  1  0.226944  0.088876  0.900720  1
  Li  Li6644  1  0.088876  0.773056  0.099280  1
  Li  Li6645  1  0.226944  0.911124  0.099280  1
  Li  Li6646  1  0.911124  0.773056  0.900720  1
  Li  Li6647  1  0.088876  0.226944  0.900720  1
  Li  Li6648  1  0.099280  0.273056  0.588876  1
  Li  Li6649  1  0.773056  0.400720  0.411124  1
  Li  Li6650  1  0.900720  0.726944  0.588876  1
  Li  Li6651  1  0.226944  0.599280  0.411124  1
  Li  Li6652  1  0.099280  0.726944  0.411124  1
  Li  Li6653  1  0.226944  0.400720  0.588876  1
  Li  Li6654  1  0.900720  0.273056  0.411124  1
  Li  Li6655  1  0.773056  0.599280  0.588876  1
  Li  Li6656  1  0.088876  0.599280  0.273056  1
  Li  Li6657  1  0.099280  0.411124  0.726944  1
  Li  Li6658  1  0.911124  0.400720  0.273056  1
  Li  Li6659  1  0.900720  0.588876  0.726944  1
  Li  Li6660  1  0.088876  0.400720  0.726944  1
  Li  Li6661  1  0.900720  0.411124  0.273056  1
  Li  Li6662  1  0.911124  0.599280  0.726944  1
  Li  Li6663  1  0.099280  0.588876  0.273056  1
  Li  Li6664  1  0.773056  0.588876  0.599280  1
  Li  Li6665  1  0.773056  0.411124  0.400720  1
  Li  Li6666  1  0.911124  0.726944  0.599280  1
  Li  Li6667  1  0.226944  0.588876  0.400720  1
  Li  Li6668  1  0.088876  0.273056  0.599280  1
  Li  Li6669  1  0.226944  0.411124  0.599280  1
  Li  Li6670  1  0.911124  0.273056  0.400720  1
  Li  Li6671  1  0.088876  0.726944  0.400720  1
  Li  Li6672  1  0.599280  0.773056  0.588876  1
  Li  Li6673  1  0.273056  0.900720  0.411124  1
  Li  Li6674  1  0.400720  0.226944  0.588876  1
  Li  Li6675  1  0.726944  0.099280  0.411124  1
  Li  Li6676  1  0.599280  0.226944  0.411124  1
  Li  Li6677  1  0.726944  0.900720  0.588876  1
  Li  Li6678  1  0.400720  0.773056  0.411124  1
  Li  Li6679  1  0.273056  0.099280  0.588876  1
  Li  Li6680  1  0.588876  0.099280  0.273056  1
  Li  Li6681  1  0.599280  0.911124  0.726944  1
  Li  Li6682  1  0.411124  0.900720  0.273056  1
  Li  Li6683  1  0.400720  0.088876  0.726944  1
  Li  Li6684  1  0.588876  0.900720  0.726944  1
  Li  Li6685  1  0.400720  0.911124  0.273056  1
  Li  Li6686  1  0.411124  0.099280  0.726944  1
  Li  Li6687  1  0.599280  0.088876  0.273056  1
  Li  Li6688  1  0.273056  0.088876  0.599280  1
  Li  Li6689  1  0.273056  0.911124  0.400720  1
  Li  Li6690  1  0.411124  0.226944  0.599280  1
  Li  Li6691  1  0.726944  0.088876  0.400720  1
  Li  Li6692  1  0.588876  0.773056  0.599280  1
  Li  Li6693  1  0.726944  0.911124  0.599280  1
  Li  Li6694  1  0.411124  0.773056  0.400720  1
  Li  Li6695  1  0.588876  0.226944  0.400720  1
  Li  Li6696  1  0.599280  0.273056  0.088876  1
  Li  Li6697  1  0.273056  0.400720  0.911124  1
  Li  Li6698  1  0.400720  0.726944  0.088876  1
  Li  Li6699  1  0.726944  0.599280  0.911124  1
  Li  Li6700  1  0.599280  0.726944  0.911124  1
  Li  Li6701  1  0.726944  0.400720  0.088876  1
  Li  Li6702  1  0.400720  0.273056  0.911124  1
  Li  Li6703  1  0.273056  0.599280  0.088876  1
  Li  Li6704  1  0.588876  0.599280  0.773056  1
  Li  Li6705  1  0.599280  0.411124  0.226944  1
  Li  Li6706  1  0.411124  0.400720  0.773056  1
  Li  Li6707  1  0.400720  0.588876  0.226944  1
  Li  Li6708  1  0.588876  0.400720  0.226944  1
  Li  Li6709  1  0.400720  0.411124  0.773056  1
  Li  Li6710  1  0.411124  0.599280  0.226944  1
  Li  Li6711  1  0.599280  0.588876  0.773056  1
  Li  Li6712  1  0.273056  0.588876  0.099280  1
  Li  Li6713  1  0.273056  0.411124  0.900720  1
  Li  Li6714  1  0.411124  0.726944  0.099280  1
  Li  Li6715  1  0.726944  0.588876  0.900720  1
  Li  Li6716  1  0.588876  0.273056  0.099280  1
  Li  Li6717  1  0.726944  0.411124  0.099280  1
  Li  Li6718  1  0.411124  0.273056  0.900720  1
  Li  Li6719  1  0.588876  0.726944  0.900720  1
  Li  Li6720  1  0.012021  0.784956  0.215919  1
  Li  Li6721  1  0.784956  0.987979  0.784081  1
  Li  Li6722  1  0.987979  0.215044  0.215919  1
  Li  Li6723  1  0.215044  0.012021  0.784081  1
  Li  Li6724  1  0.012021  0.215044  0.784081  1
  Li  Li6725  1  0.215044  0.987979  0.215919  1
  Li  Li6726  1  0.987979  0.784956  0.784081  1
  Li  Li6727  1  0.784956  0.012021  0.215919  1
  Li  Li6728  1  0.215919  0.012021  0.784956  1
  Li  Li6729  1  0.012021  0.784081  0.215044  1
  Li  Li6730  1  0.784081  0.987979  0.784956  1
  Li  Li6731  1  0.987979  0.215919  0.215044  1
  Li  Li6732  1  0.215919  0.987979  0.215044  1
  Li  Li6733  1  0.987979  0.784081  0.784956  1
  Li  Li6734  1  0.784081  0.012021  0.215044  1
  Li  Li6735  1  0.012021  0.215919  0.784956  1
  Li  Li6736  1  0.784956  0.215919  0.012021  1
  Li  Li6737  1  0.784956  0.784081  0.987979  1
  Li  Li6738  1  0.784081  0.215044  0.012021  1
  Li  Li6739  1  0.215044  0.215919  0.987979  1
  Li  Li6740  1  0.215919  0.784956  0.012021  1
  Li  Li6741  1  0.215044  0.784081  0.012021  1
  Li  Li6742  1  0.784081  0.784956  0.987979  1
  Li  Li6743  1  0.215919  0.215044  0.987979  1
  Li  Li6744  1  0.012021  0.284956  0.715919  1
  Li  Li6745  1  0.784956  0.487979  0.284081  1
  Li  Li6746  1  0.987979  0.715044  0.715919  1
  Li  Li6747  1  0.215044  0.512021  0.284081  1
  Li  Li6748  1  0.012021  0.715044  0.284081  1
  Li  Li6749  1  0.215044  0.487979  0.715919  1
  Li  Li6750  1  0.987979  0.284956  0.284081  1
  Li  Li6751  1  0.784956  0.512021  0.715919  1
  Li  Li6752  1  0.215919  0.512021  0.284956  1
  Li  Li6753  1  0.012021  0.284081  0.715044  1
  Li  Li6754  1  0.784081  0.487979  0.284956  1
  Li  Li6755  1  0.987979  0.715919  0.715044  1
  Li  Li6756  1  0.215919  0.487979  0.715044  1
  Li  Li6757  1  0.987979  0.284081  0.284956  1
  Li  Li6758  1  0.784081  0.512021  0.715044  1
  Li  Li6759  1  0.012021  0.715919  0.284956  1
  Li  Li6760  1  0.784956  0.715919  0.512021  1
  Li  Li6761  1  0.784956  0.284081  0.487979  1
  Li  Li6762  1  0.784081  0.715044  0.512021  1
  Li  Li6763  1  0.215044  0.715919  0.487979  1
  Li  Li6764  1  0.215919  0.284956  0.512021  1
  Li  Li6765  1  0.215044  0.284081  0.512021  1
  Li  Li6766  1  0.784081  0.284956  0.487979  1
  Li  Li6767  1  0.215919  0.715044  0.487979  1
  Li  Li6768  1  0.512021  0.784956  0.715919  1
  Li  Li6769  1  0.284956  0.987979  0.284081  1
  Li  Li6770  1  0.487979  0.215044  0.715919  1
  Li  Li6771  1  0.715044  0.012021  0.284081  1
  Li  Li6772  1  0.512021  0.215044  0.284081  1
  Li  Li6773  1  0.715044  0.987979  0.715919  1
  Li  Li6774  1  0.487979  0.784956  0.284081  1
  Li  Li6775  1  0.284956  0.012021  0.715919  1
  Li  Li6776  1  0.715919  0.012021  0.284956  1
  Li  Li6777  1  0.512021  0.784081  0.715044  1
  Li  Li6778  1  0.284081  0.987979  0.284956  1
  Li  Li6779  1  0.487979  0.215919  0.715044  1
  Li  Li6780  1  0.715919  0.987979  0.715044  1
  Li  Li6781  1  0.487979  0.784081  0.284956  1
  Li  Li6782  1  0.284081  0.012021  0.715044  1
  Li  Li6783  1  0.512021  0.215919  0.284956  1
  Li  Li6784  1  0.284956  0.215919  0.512021  1
  Li  Li6785  1  0.284956  0.784081  0.487979  1
  Li  Li6786  1  0.284081  0.215044  0.512021  1
  Li  Li6787  1  0.715044  0.215919  0.487979  1
  Li  Li6788  1  0.715919  0.784956  0.512021  1
  Li  Li6789  1  0.715044  0.784081  0.512021  1
  Li  Li6790  1  0.284081  0.784956  0.487979  1
  Li  Li6791  1  0.715919  0.215044  0.487979  1
  Li  Li6792  1  0.512021  0.284956  0.215919  1
  Li  Li6793  1  0.284956  0.487979  0.784081  1
  Li  Li6794  1  0.487979  0.715044  0.215919  1
  Li  Li6795  1  0.715044  0.512021  0.784081  1
  Li  Li6796  1  0.512021  0.715044  0.784081  1
  Li  Li6797  1  0.715044  0.487979  0.215919  1
  Li  Li6798  1  0.487979  0.284956  0.784081  1
  Li  Li6799  1  0.284956  0.512021  0.215919  1
  Li  Li6800  1  0.715919  0.512021  0.784956  1
  Li  Li6801  1  0.512021  0.284081  0.215044  1
  Li  Li6802  1  0.284081  0.487979  0.784956  1
  Li  Li6803  1  0.487979  0.715919  0.215044  1
  Li  Li6804  1  0.715919  0.487979  0.215044  1
  Li  Li6805  1  0.487979  0.284081  0.784956  1
  Li  Li6806  1  0.284081  0.512021  0.215044  1
  Li  Li6807  1  0.512021  0.715919  0.784956  1
  Li  Li6808  1  0.284956  0.715919  0.012021  1
  Li  Li6809  1  0.284956  0.284081  0.987979  1
  Li  Li6810  1  0.284081  0.715044  0.012021  1
  Li  Li6811  1  0.715044  0.715919  0.987979  1
  Li  Li6812  1  0.715919  0.284956  0.012021  1
  Li  Li6813  1  0.715044  0.284081  0.012021  1
  Li  Li6814  1  0.284081  0.284956  0.987979  1
  Li  Li6815  1  0.715919  0.715044  0.987979  1
  Li  Li6816  1  0.478048  0.736472  0.241951  1
  Li  Li6817  1  0.736472  0.521952  0.758049  1
  Li  Li6818  1  0.521952  0.263528  0.241951  1
  Li  Li6819  1  0.263528  0.478048  0.758049  1
  Li  Li6820  1  0.478048  0.263528  0.758049  1
  Li  Li6821  1  0.263528  0.521952  0.241951  1
  Li  Li6822  1  0.521952  0.736472  0.758049  1
  Li  Li6823  1  0.736472  0.478048  0.241951  1
  Li  Li6824  1  0.241951  0.478048  0.736472  1
  Li  Li6825  1  0.478048  0.758049  0.263528  1
  Li  Li6826  1  0.758049  0.521952  0.736472  1
  Li  Li6827  1  0.521952  0.241951  0.263528  1
  Li  Li6828  1  0.241951  0.521952  0.263528  1
  Li  Li6829  1  0.521952  0.758049  0.736472  1
  Li  Li6830  1  0.758049  0.478048  0.263528  1
  Li  Li6831  1  0.478048  0.241951  0.736472  1
  Li  Li6832  1  0.736472  0.241951  0.478048  1
  Li  Li6833  1  0.736472  0.758049  0.521952  1
  Li  Li6834  1  0.758049  0.263528  0.478048  1
  Li  Li6835  1  0.263528  0.241951  0.521952  1
  Li  Li6836  1  0.241951  0.736472  0.478048  1
  Li  Li6837  1  0.263528  0.758049  0.478048  1
  Li  Li6838  1  0.758049  0.736472  0.521952  1
  Li  Li6839  1  0.241951  0.263528  0.521952  1
  Li  Li6840  1  0.478048  0.236472  0.741951  1
  Li  Li6841  1  0.736472  0.021952  0.258049  1
  Li  Li6842  1  0.521952  0.763528  0.741951  1
  Li  Li6843  1  0.263528  0.978048  0.258049  1
  Li  Li6844  1  0.478048  0.763528  0.258049  1
  Li  Li6845  1  0.263528  0.021952  0.741951  1
  Li  Li6846  1  0.521952  0.236472  0.258049  1
  Li  Li6847  1  0.736472  0.978048  0.741951  1
  Li  Li6848  1  0.241951  0.978048  0.236472  1
  Li  Li6849  1  0.478048  0.258049  0.763528  1
  Li  Li6850  1  0.758049  0.021952  0.236472  1
  Li  Li6851  1  0.521952  0.741951  0.763528  1
  Li  Li6852  1  0.241951  0.021952  0.763528  1
  Li  Li6853  1  0.521952  0.258049  0.236472  1
  Li  Li6854  1  0.758049  0.978048  0.763528  1
  Li  Li6855  1  0.478048  0.741951  0.236472  1
  Li  Li6856  1  0.736472  0.741951  0.978048  1
  Li  Li6857  1  0.736472  0.258049  0.021952  1
  Li  Li6858  1  0.758049  0.763528  0.978048  1
  Li  Li6859  1  0.263528  0.741951  0.021952  1
  Li  Li6860  1  0.241951  0.236472  0.978048  1
  Li  Li6861  1  0.263528  0.258049  0.978048  1
  Li  Li6862  1  0.758049  0.236472  0.021952  1
  Li  Li6863  1  0.241951  0.763528  0.021952  1
  Li  Li6864  1  0.978048  0.736472  0.741951  1
  Li  Li6865  1  0.236472  0.521952  0.258049  1
  Li  Li6866  1  0.021952  0.263528  0.741951  1
  Li  Li6867  1  0.763528  0.478048  0.258049  1
  Li  Li6868  1  0.978048  0.263528  0.258049  1
  Li  Li6869  1  0.763528  0.521952  0.741951  1
  Li  Li6870  1  0.021952  0.736472  0.258049  1
  Li  Li6871  1  0.236472  0.478048  0.741951  1
  Li  Li6872  1  0.741951  0.478048  0.236472  1
  Li  Li6873  1  0.978048  0.758049  0.763528  1
  Li  Li6874  1  0.258049  0.521952  0.236472  1
  Li  Li6875  1  0.021952  0.241951  0.763528  1
  Li  Li6876  1  0.741951  0.521952  0.763528  1
  Li  Li6877  1  0.021952  0.758049  0.236472  1
  Li  Li6878  1  0.258049  0.478048  0.763528  1
  Li  Li6879  1  0.978048  0.241951  0.236472  1
  Li  Li6880  1  0.236472  0.241951  0.978048  1
  Li  Li6881  1  0.236472  0.758049  0.021952  1
  Li  Li6882  1  0.258049  0.263528  0.978048  1
  Li  Li6883  1  0.763528  0.241951  0.021952  1
  Li  Li6884  1  0.741951  0.736472  0.978048  1
  Li  Li6885  1  0.763528  0.758049  0.978048  1
  Li  Li6886  1  0.258049  0.736472  0.021952  1
  Li  Li6887  1  0.741951  0.263528  0.021952  1
  Li  Li6888  1  0.978048  0.236472  0.241951  1
  Li  Li6889  1  0.236472  0.021952  0.758049  1
  Li  Li6890  1  0.021952  0.763528  0.241951  1
  Li  Li6891  1  0.763528  0.978048  0.758049  1
  Li  Li6892  1  0.978048  0.763528  0.758049  1
  Li  Li6893  1  0.763528  0.021952  0.241951  1
  Li  Li6894  1  0.021952  0.236472  0.758049  1
  Li  Li6895  1  0.236472  0.978048  0.241951  1
  Li  Li6896  1  0.741951  0.978048  0.736472  1
  Li  Li6897  1  0.978048  0.258049  0.263528  1
  Li  Li6898  1  0.258049  0.021952  0.736472  1
  Li  Li6899  1  0.021952  0.741951  0.263528  1
  Li  Li6900  1  0.741951  0.021952  0.263528  1
  Li  Li6901  1  0.021952  0.258049  0.736472  1
  Li  Li6902  1  0.258049  0.978048  0.263528  1
  Li  Li6903  1  0.978048  0.741951  0.736472  1
  Li  Li6904  1  0.236472  0.741951  0.478048  1
  Li  Li6905  1  0.236472  0.258049  0.521952  1
  Li  Li6906  1  0.258049  0.763528  0.478048  1
  Li  Li6907  1  0.763528  0.741951  0.521952  1
  Li  Li6908  1  0.741951  0.236472  0.478048  1
  Li  Li6909  1  0.763528  0.258049  0.478048  1
  Li  Li6910  1  0.258049  0.236472  0.521952  1
  Li  Li6911  1  0.741951  0.763528  0.521952  1
  Li  Li6912  1  0.272238  0.980807  0.283681  1
  Li  Li6913  1  0.980807  0.727762  0.716319  1
  Li  Li6914  1  0.727762  0.019193  0.283681  1
  Li  Li6915  1  0.019193  0.272238  0.716319  1
  Li  Li6916  1  0.272238  0.019193  0.716319  1
  Li  Li6917  1  0.019193  0.727762  0.283681  1
  Li  Li6918  1  0.727762  0.980807  0.716319  1
  Li  Li6919  1  0.980807  0.272238  0.283681  1
  Li  Li6920  1  0.283681  0.272238  0.980807  1
  Li  Li6921  1  0.272238  0.716319  0.019193  1
  Li  Li6922  1  0.716319  0.727762  0.980807  1
  Li  Li6923  1  0.727762  0.283681  0.019193  1
  Li  Li6924  1  0.283681  0.727762  0.019193  1
  Li  Li6925  1  0.727762  0.716319  0.980807  1
  Li  Li6926  1  0.716319  0.272238  0.019193  1
  Li  Li6927  1  0.272238  0.283681  0.980807  1
  Li  Li6928  1  0.980807  0.283681  0.272238  1
  Li  Li6929  1  0.980807  0.716319  0.727762  1
  Li  Li6930  1  0.716319  0.019193  0.272238  1
  Li  Li6931  1  0.019193  0.283681  0.727762  1
  Li  Li6932  1  0.283681  0.980807  0.272238  1
  Li  Li6933  1  0.019193  0.716319  0.272238  1
  Li  Li6934  1  0.716319  0.980807  0.727762  1
  Li  Li6935  1  0.283681  0.019193  0.727762  1
  Li  Li6936  1  0.272238  0.480807  0.783681  1
  Li  Li6937  1  0.980807  0.227762  0.216319  1
  Li  Li6938  1  0.727762  0.519193  0.783681  1
  Li  Li6939  1  0.019193  0.772238  0.216319  1
  Li  Li6940  1  0.272238  0.519193  0.216319  1
  Li  Li6941  1  0.019193  0.227762  0.783681  1
  Li  Li6942  1  0.727762  0.480807  0.216319  1
  Li  Li6943  1  0.980807  0.772238  0.783681  1
  Li  Li6944  1  0.283681  0.772238  0.480807  1
  Li  Li6945  1  0.272238  0.216319  0.519193  1
  Li  Li6946  1  0.716319  0.227762  0.480807  1
  Li  Li6947  1  0.727762  0.783681  0.519193  1
  Li  Li6948  1  0.283681  0.227762  0.519193  1
  Li  Li6949  1  0.727762  0.216319  0.480807  1
  Li  Li6950  1  0.716319  0.772238  0.519193  1
  Li  Li6951  1  0.272238  0.783681  0.480807  1
  Li  Li6952  1  0.980807  0.783681  0.772238  1
  Li  Li6953  1  0.980807  0.216319  0.227762  1
  Li  Li6954  1  0.716319  0.519193  0.772238  1
  Li  Li6955  1  0.019193  0.783681  0.227762  1
  Li  Li6956  1  0.283681  0.480807  0.772238  1
  Li  Li6957  1  0.019193  0.216319  0.772238  1
  Li  Li6958  1  0.716319  0.480807  0.227762  1
  Li  Li6959  1  0.283681  0.519193  0.227762  1
  Li  Li6960  1  0.772238  0.980807  0.783681  1
  Li  Li6961  1  0.480807  0.727762  0.216319  1
  Li  Li6962  1  0.227762  0.019193  0.783681  1
  Li  Li6963  1  0.519193  0.272238  0.216319  1
  Li  Li6964  1  0.772238  0.019193  0.216319  1
  Li  Li6965  1  0.519193  0.727762  0.783681  1
  Li  Li6966  1  0.227762  0.980807  0.216319  1
  Li  Li6967  1  0.480807  0.272238  0.783681  1
  Li  Li6968  1  0.783681  0.272238  0.480807  1
  Li  Li6969  1  0.772238  0.716319  0.519193  1
  Li  Li6970  1  0.216319  0.727762  0.480807  1
  Li  Li6971  1  0.227762  0.283681  0.519193  1
  Li  Li6972  1  0.783681  0.727762  0.519193  1
  Li  Li6973  1  0.227762  0.716319  0.480807  1
  Li  Li6974  1  0.216319  0.272238  0.519193  1
  Li  Li6975  1  0.772238  0.283681  0.480807  1
  Li  Li6976  1  0.480807  0.283681  0.772238  1
  Li  Li6977  1  0.480807  0.716319  0.227762  1
  Li  Li6978  1  0.216319  0.019193  0.772238  1
  Li  Li6979  1  0.519193  0.283681  0.227762  1
  Li  Li6980  1  0.783681  0.980807  0.772238  1
  Li  Li6981  1  0.519193  0.716319  0.772238  1
  Li  Li6982  1  0.216319  0.980807  0.227762  1
  Li  Li6983  1  0.783681  0.019193  0.227762  1
  Li  Li6984  1  0.772238  0.480807  0.283681  1
  Li  Li6985  1  0.480807  0.227762  0.716319  1
  Li  Li6986  1  0.227762  0.519193  0.283681  1
  Li  Li6987  1  0.519193  0.772238  0.716319  1
  Li  Li6988  1  0.772238  0.519193  0.716319  1
  Li  Li6989  1  0.519193  0.227762  0.283681  1
  Li  Li6990  1  0.227762  0.480807  0.716319  1
  Li  Li6991  1  0.480807  0.772238  0.283681  1
  Li  Li6992  1  0.783681  0.772238  0.980807  1
  Li  Li6993  1  0.772238  0.216319  0.019193  1
  Li  Li6994  1  0.216319  0.227762  0.980807  1
  Li  Li6995  1  0.227762  0.783681  0.019193  1
  Li  Li6996  1  0.783681  0.227762  0.019193  1
  Li  Li6997  1  0.227762  0.216319  0.980807  1
  Li  Li6998  1  0.216319  0.772238  0.019193  1
  Li  Li6999  1  0.772238  0.783681  0.980807  1
  Li  Li7000  1  0.480807  0.783681  0.272238  1
  Li  Li7001  1  0.480807  0.216319  0.727762  1
  Li  Li7002  1  0.216319  0.519193  0.272238  1
  Li  Li7003  1  0.519193  0.783681  0.727762  1
  Li  Li7004  1  0.783681  0.480807  0.272238  1
  Li  Li7005  1  0.519193  0.216319  0.272238  1
  Li  Li7006  1  0.216319  0.480807  0.727762  1
  Li  Li7007  1  0.783681  0.519193  0.727762  1
  Li  Li7008  1  0.020344  0.708539  0.274852  1
  Li  Li7009  1  0.708539  0.979656  0.725148  1
  Li  Li7010  1  0.979656  0.291461  0.274852  1
  Li  Li7011  1  0.291461  0.020344  0.725148  1
  Li  Li7012  1  0.020344  0.291461  0.725148  1
  Li  Li7013  1  0.291461  0.979656  0.274852  1
  Li  Li7014  1  0.979656  0.708539  0.725148  1
  Li  Li7015  1  0.708539  0.020344  0.274852  1
  Li  Li7016  1  0.274852  0.020344  0.708539  1
  Li  Li7017  1  0.020344  0.725148  0.291461  1
  Li  Li7018  1  0.725148  0.979656  0.708539  1
  Li  Li7019  1  0.979656  0.274852  0.291461  1
  Li  Li7020  1  0.274852  0.979656  0.291461  1
  Li  Li7021  1  0.979656  0.725148  0.708539  1
  Li  Li7022  1  0.725148  0.020344  0.291461  1
  Li  Li7023  1  0.020344  0.274852  0.708539  1
  Li  Li7024  1  0.708539  0.274852  0.020344  1
  Li  Li7025  1  0.708539  0.725148  0.979656  1
  Li  Li7026  1  0.725148  0.291461  0.020344  1
  Li  Li7027  1  0.291461  0.274852  0.979656  1
  Li  Li7028  1  0.274852  0.708539  0.020344  1
  Li  Li7029  1  0.291461  0.725148  0.020344  1
  Li  Li7030  1  0.725148  0.708539  0.979656  1
  Li  Li7031  1  0.274852  0.291461  0.979656  1
  Li  Li7032  1  0.020344  0.208539  0.774852  1
  Li  Li7033  1  0.708539  0.479656  0.225148  1
  Li  Li7034  1  0.979656  0.791461  0.774852  1
  Li  Li7035  1  0.291461  0.520344  0.225148  1
  Li  Li7036  1  0.020344  0.791461  0.225148  1
  Li  Li7037  1  0.291461  0.479656  0.774852  1
  Li  Li7038  1  0.979656  0.208539  0.225148  1
  Li  Li7039  1  0.708539  0.520344  0.774852  1
  Li  Li7040  1  0.274852  0.520344  0.208539  1
  Li  Li7041  1  0.020344  0.225148  0.791461  1
  Li  Li7042  1  0.725148  0.479656  0.208539  1
  Li  Li7043  1  0.979656  0.774852  0.791461  1
  Li  Li7044  1  0.274852  0.479656  0.791461  1
  Li  Li7045  1  0.979656  0.225148  0.208539  1
  Li  Li7046  1  0.725148  0.520344  0.791461  1
  Li  Li7047  1  0.020344  0.774852  0.208539  1
  Li  Li7048  1  0.708539  0.774852  0.520344  1
  Li  Li7049  1  0.708539  0.225148  0.479656  1
  Li  Li7050  1  0.725148  0.791461  0.520344  1
  Li  Li7051  1  0.291461  0.774852  0.479656  1
  Li  Li7052  1  0.274852  0.208539  0.520344  1
  Li  Li7053  1  0.291461  0.225148  0.520344  1
  Li  Li7054  1  0.725148  0.208539  0.479656  1
  Li  Li7055  1  0.274852  0.791461  0.479656  1
  Li  Li7056  1  0.520344  0.708539  0.774852  1
  Li  Li7057  1  0.208539  0.979656  0.225148  1
  Li  Li7058  1  0.479656  0.291461  0.774852  1
  Li  Li7059  1  0.791461  0.020344  0.225148  1
  Li  Li7060  1  0.520344  0.291461  0.225148  1
  Li  Li7061  1  0.791461  0.979656  0.774852  1
  Li  Li7062  1  0.479656  0.708539  0.225148  1
  Li  Li7063  1  0.208539  0.020344  0.774852  1
  Li  Li7064  1  0.774852  0.020344  0.208539  1
  Li  Li7065  1  0.520344  0.725148  0.791461  1
  Li  Li7066  1  0.225148  0.979656  0.208539  1
  Li  Li7067  1  0.479656  0.274852  0.791461  1
  Li  Li7068  1  0.774852  0.979656  0.791461  1
  Li  Li7069  1  0.479656  0.725148  0.208539  1
  Li  Li7070  1  0.225148  0.020344  0.791461  1
  Li  Li7071  1  0.520344  0.274852  0.208539  1
  Li  Li7072  1  0.208539  0.274852  0.520344  1
  Li  Li7073  1  0.208539  0.725148  0.479656  1
  Li  Li7074  1  0.225148  0.291461  0.520344  1
  Li  Li7075  1  0.791461  0.274852  0.479656  1
  Li  Li7076  1  0.774852  0.708539  0.520344  1
  Li  Li7077  1  0.791461  0.725148  0.520344  1
  Li  Li7078  1  0.225148  0.708539  0.479656  1
  Li  Li7079  1  0.774852  0.291461  0.479656  1
  Li  Li7080  1  0.520344  0.208539  0.274852  1
  Li  Li7081  1  0.208539  0.479656  0.725148  1
  Li  Li7082  1  0.479656  0.791461  0.274852  1
  Li  Li7083  1  0.791461  0.520344  0.725148  1
  Li  Li7084  1  0.520344  0.791461  0.725148  1
  Li  Li7085  1  0.791461  0.479656  0.274852  1
  Li  Li7086  1  0.479656  0.208539  0.725148  1
  Li  Li7087  1  0.208539  0.520344  0.274852  1
  Li  Li7088  1  0.774852  0.520344  0.708539  1
  Li  Li7089  1  0.520344  0.225148  0.291461  1
  Li  Li7090  1  0.225148  0.479656  0.708539  1
  Li  Li7091  1  0.479656  0.774852  0.291461  1
  Li  Li7092  1  0.774852  0.479656  0.291461  1
  Li  Li7093  1  0.479656  0.225148  0.708539  1
  Li  Li7094  1  0.225148  0.520344  0.291461  1
  Li  Li7095  1  0.520344  0.774852  0.708539  1
  Li  Li7096  1  0.208539  0.774852  0.020344  1
  Li  Li7097  1  0.208539  0.225148  0.979656  1
  Li  Li7098  1  0.225148  0.791461  0.020344  1
  Li  Li7099  1  0.791461  0.774852  0.979656  1
  Li  Li7100  1  0.774852  0.208539  0.020344  1
  Li  Li7101  1  0.791461  0.225148  0.020344  1
  Li  Li7102  1  0.225148  0.208539  0.979656  1
  Li  Li7103  1  0.774852  0.791461  0.979656  1
  Li  Li7104  1  0.022295  0.691227  0.294305  1
  Li  Li7105  1  0.691227  0.977705  0.705695  1
  Li  Li7106  1  0.977705  0.308773  0.294305  1
  Li  Li7107  1  0.308773  0.022295  0.705695  1
  Li  Li7108  1  0.022295  0.308773  0.705695  1
  Li  Li7109  1  0.308773  0.977705  0.294305  1
  Li  Li7110  1  0.977705  0.691227  0.705695  1
  Li  Li7111  1  0.691227  0.022295  0.294305  1
  Li  Li7112  1  0.294305  0.022295  0.691227  1
  Li  Li7113  1  0.022295  0.705695  0.308773  1
  Li  Li7114  1  0.705695  0.977705  0.691227  1
  Li  Li7115  1  0.977705  0.294305  0.308773  1
  Li  Li7116  1  0.294305  0.977705  0.308773  1
  Li  Li7117  1  0.977705  0.705695  0.691227  1
  Li  Li7118  1  0.705695  0.022295  0.308773  1
  Li  Li7119  1  0.022295  0.294305  0.691227  1
  Li  Li7120  1  0.691227  0.294305  0.022295  1
  Li  Li7121  1  0.691227  0.705695  0.977705  1
  Li  Li7122  1  0.705695  0.308773  0.022295  1
  Li  Li7123  1  0.308773  0.294305  0.977705  1
  Li  Li7124  1  0.294305  0.691227  0.022295  1
  Li  Li7125  1  0.308773  0.705695  0.022295  1
  Li  Li7126  1  0.705695  0.691227  0.977705  1
  Li  Li7127  1  0.294305  0.308773  0.977705  1
  Li  Li7128  1  0.022295  0.191227  0.794305  1
  Li  Li7129  1  0.691227  0.477705  0.205695  1
  Li  Li7130  1  0.977705  0.808773  0.794305  1
  Li  Li7131  1  0.308773  0.522295  0.205695  1
  Li  Li7132  1  0.022295  0.808773  0.205695  1
  Li  Li7133  1  0.308773  0.477705  0.794305  1
  Li  Li7134  1  0.977705  0.191227  0.205695  1
  Li  Li7135  1  0.691227  0.522295  0.794305  1
  Li  Li7136  1  0.294305  0.522295  0.191227  1
  Li  Li7137  1  0.022295  0.205695  0.808773  1
  Li  Li7138  1  0.705695  0.477705  0.191227  1
  Li  Li7139  1  0.977705  0.794305  0.808773  1
  Li  Li7140  1  0.294305  0.477705  0.808773  1
  Li  Li7141  1  0.977705  0.205695  0.191227  1
  Li  Li7142  1  0.705695  0.522295  0.808773  1
  Li  Li7143  1  0.022295  0.794305  0.191227  1
  Li  Li7144  1  0.691227  0.794305  0.522295  1
  Li  Li7145  1  0.691227  0.205695  0.477705  1
  Li  Li7146  1  0.705695  0.808773  0.522295  1
  Li  Li7147  1  0.308773  0.794305  0.477705  1
  Li  Li7148  1  0.294305  0.191227  0.522295  1
  Li  Li7149  1  0.308773  0.205695  0.522295  1
  Li  Li7150  1  0.705695  0.191227  0.477705  1
  Li  Li7151  1  0.294305  0.808773  0.477705  1
  Li  Li7152  1  0.522295  0.691227  0.794305  1
  Li  Li7153  1  0.191227  0.977705  0.205695  1
  Li  Li7154  1  0.477705  0.308773  0.794305  1
  Li  Li7155  1  0.808773  0.022295  0.205695  1
  Li  Li7156  1  0.522295  0.308773  0.205695  1
  Li  Li7157  1  0.808773  0.977705  0.794305  1
  Li  Li7158  1  0.477705  0.691227  0.205695  1
  Li  Li7159  1  0.191227  0.022295  0.794305  1
  Li  Li7160  1  0.794305  0.022295  0.191227  1
  Li  Li7161  1  0.522295  0.705695  0.808773  1
  Li  Li7162  1  0.205695  0.977705  0.191227  1
  Li  Li7163  1  0.477705  0.294305  0.808773  1
  Li  Li7164  1  0.794305  0.977705  0.808773  1
  Li  Li7165  1  0.477705  0.705695  0.191227  1
  Li  Li7166  1  0.205695  0.022295  0.808773  1
  Li  Li7167  1  0.522295  0.294305  0.191227  1
  Li  Li7168  1  0.191227  0.294305  0.522295  1
  Li  Li7169  1  0.191227  0.705695  0.477705  1
  Li  Li7170  1  0.205695  0.308773  0.522295  1
  Li  Li7171  1  0.808773  0.294305  0.477705  1
  Li  Li7172  1  0.794305  0.691227  0.522295  1
  Li  Li7173  1  0.808773  0.705695  0.522295  1
  Li  Li7174  1  0.205695  0.691227  0.477705  1
  Li  Li7175  1  0.794305  0.308773  0.477705  1
  Li  Li7176  1  0.522295  0.191227  0.294305  1
  Li  Li7177  1  0.191227  0.477705  0.705695  1
  Li  Li7178  1  0.477705  0.808773  0.294305  1
  Li  Li7179  1  0.808773  0.522295  0.705695  1
  Li  Li7180  1  0.522295  0.808773  0.705695  1
  Li  Li7181  1  0.808773  0.477705  0.294305  1
  Li  Li7182  1  0.477705  0.191227  0.705695  1
  Li  Li7183  1  0.191227  0.522295  0.294305  1
  Li  Li7184  1  0.794305  0.522295  0.691227  1
  Li  Li7185  1  0.522295  0.205695  0.308773  1
  Li  Li7186  1  0.205695  0.477705  0.691227  1
  Li  Li7187  1  0.477705  0.794305  0.308773  1
  Li  Li7188  1  0.794305  0.477705  0.308773  1
  Li  Li7189  1  0.477705  0.205695  0.691227  1
  Li  Li7190  1  0.205695  0.522295  0.308773  1
  Li  Li7191  1  0.522295  0.794305  0.691227  1
  Li  Li7192  1  0.191227  0.794305  0.022295  1
  Li  Li7193  1  0.191227  0.205695  0.977705  1
  Li  Li7194  1  0.205695  0.808773  0.022295  1
  Li  Li7195  1  0.808773  0.794305  0.977705  1
  Li  Li7196  1  0.794305  0.191227  0.022295  1
  Li  Li7197  1  0.808773  0.205695  0.022295  1
  Li  Li7198  1  0.205695  0.191227  0.977705  1
  Li  Li7199  1  0.794305  0.808773  0.977705  1
  Li  Li7200  1  0.064350  0.732172  0.402665  1
  Li  Li7201  1  0.732172  0.935650  0.597335  1
  Li  Li7202  1  0.935650  0.267828  0.402665  1
  Li  Li7203  1  0.267828  0.064350  0.597335  1
  Li  Li7204  1  0.064350  0.267828  0.597335  1
  Li  Li7205  1  0.267828  0.935650  0.402665  1
  Li  Li7206  1  0.935650  0.732172  0.597335  1
  Li  Li7207  1  0.732172  0.064350  0.402665  1
  Li  Li7208  1  0.402665  0.064350  0.732172  1
  Li  Li7209  1  0.064350  0.597335  0.267828  1
  Li  Li7210  1  0.597335  0.935650  0.732172  1
  Li  Li7211  1  0.935650  0.402665  0.267828  1
  Li  Li7212  1  0.402665  0.935650  0.267828  1
  Li  Li7213  1  0.935650  0.597335  0.732172  1
  Li  Li7214  1  0.597335  0.064350  0.267828  1
  Li  Li7215  1  0.064350  0.402665  0.732172  1
  Li  Li7216  1  0.732172  0.402665  0.064350  1
  Li  Li7217  1  0.732172  0.597335  0.935650  1
  Li  Li7218  1  0.597335  0.267828  0.064350  1
  Li  Li7219  1  0.267828  0.402665  0.935650  1
  Li  Li7220  1  0.402665  0.732172  0.064350  1
  Li  Li7221  1  0.267828  0.597335  0.064350  1
  Li  Li7222  1  0.597335  0.732172  0.935650  1
  Li  Li7223  1  0.402665  0.267828  0.935650  1
  Li  Li7224  1  0.064350  0.232172  0.902665  1
  Li  Li7225  1  0.732172  0.435650  0.097335  1
  Li  Li7226  1  0.935650  0.767828  0.902665  1
  Li  Li7227  1  0.267828  0.564350  0.097335  1
  Li  Li7228  1  0.064350  0.767828  0.097335  1
  Li  Li7229  1  0.267828  0.435650  0.902665  1
  Li  Li7230  1  0.935650  0.232172  0.097335  1
  Li  Li7231  1  0.732172  0.564350  0.902665  1
  Li  Li7232  1  0.402665  0.564350  0.232172  1
  Li  Li7233  1  0.064350  0.097335  0.767828  1
  Li  Li7234  1  0.597335  0.435650  0.232172  1
  Li  Li7235  1  0.935650  0.902665  0.767828  1
  Li  Li7236  1  0.402665  0.435650  0.767828  1
  Li  Li7237  1  0.935650  0.097335  0.232172  1
  Li  Li7238  1  0.597335  0.564350  0.767828  1
  Li  Li7239  1  0.064350  0.902665  0.232172  1
  Li  Li7240  1  0.732172  0.902665  0.564350  1
  Li  Li7241  1  0.732172  0.097335  0.435650  1
  Li  Li7242  1  0.597335  0.767828  0.564350  1
  Li  Li7243  1  0.267828  0.902665  0.435650  1
  Li  Li7244  1  0.402665  0.232172  0.564350  1
  Li  Li7245  1  0.267828  0.097335  0.564350  1
  Li  Li7246  1  0.597335  0.232172  0.435650  1
  Li  Li7247  1  0.402665  0.767828  0.435650  1
  Li  Li7248  1  0.564350  0.732172  0.902665  1
  Li  Li7249  1  0.232172  0.935650  0.097335  1
  Li  Li7250  1  0.435650  0.267828  0.902665  1
  Li  Li7251  1  0.767828  0.064350  0.097335  1
  Li  Li7252  1  0.564350  0.267828  0.097335  1
  Li  Li7253  1  0.767828  0.935650  0.902665  1
  Li  Li7254  1  0.435650  0.732172  0.097335  1
  Li  Li7255  1  0.232172  0.064350  0.902665  1
  Li  Li7256  1  0.902665  0.064350  0.232172  1
  Li  Li7257  1  0.564350  0.597335  0.767828  1
  Li  Li7258  1  0.097335  0.935650  0.232172  1
  Li  Li7259  1  0.435650  0.402665  0.767828  1
  Li  Li7260  1  0.902665  0.935650  0.767828  1
  Li  Li7261  1  0.435650  0.597335  0.232172  1
  Li  Li7262  1  0.097335  0.064350  0.767828  1
  Li  Li7263  1  0.564350  0.402665  0.232172  1
  Li  Li7264  1  0.232172  0.402665  0.564350  1
  Li  Li7265  1  0.232172  0.597335  0.435650  1
  Li  Li7266  1  0.097335  0.267828  0.564350  1
  Li  Li7267  1  0.767828  0.402665  0.435650  1
  Li  Li7268  1  0.902665  0.732172  0.564350  1
  Li  Li7269  1  0.767828  0.597335  0.564350  1
  Li  Li7270  1  0.097335  0.732172  0.435650  1
  Li  Li7271  1  0.902665  0.267828  0.435650  1
  Li  Li7272  1  0.564350  0.232172  0.402665  1
  Li  Li7273  1  0.232172  0.435650  0.597335  1
  Li  Li7274  1  0.435650  0.767828  0.402665  1
  Li  Li7275  1  0.767828  0.564350  0.597335  1
  Li  Li7276  1  0.564350  0.767828  0.597335  1
  Li  Li7277  1  0.767828  0.435650  0.402665  1
  Li  Li7278  1  0.435650  0.232172  0.597335  1
  Li  Li7279  1  0.232172  0.564350  0.402665  1
  Li  Li7280  1  0.902665  0.564350  0.732172  1
  Li  Li7281  1  0.564350  0.097335  0.267828  1
  Li  Li7282  1  0.097335  0.435650  0.732172  1
  Li  Li7283  1  0.435650  0.902665  0.267828  1
  Li  Li7284  1  0.902665  0.435650  0.267828  1
  Li  Li7285  1  0.435650  0.097335  0.732172  1
  Li  Li7286  1  0.097335  0.564350  0.267828  1
  Li  Li7287  1  0.564350  0.902665  0.732172  1
  Li  Li7288  1  0.232172  0.902665  0.064350  1
  Li  Li7289  1  0.232172  0.097335  0.935650  1
  Li  Li7290  1  0.097335  0.767828  0.064350  1
  Li  Li7291  1  0.767828  0.902665  0.935650  1
  Li  Li7292  1  0.902665  0.232172  0.064350  1
  Li  Li7293  1  0.767828  0.097335  0.064350  1
  Li  Li7294  1  0.097335  0.232172  0.935650  1
  Li  Li7295  1  0.902665  0.767828  0.935650  1
  Li  Li7296  1  0.034768  0.691394  0.319792  1
  Li  Li7297  1  0.691394  0.965232  0.680208  1
  Li  Li7298  1  0.965232  0.308606  0.319792  1
  Li  Li7299  1  0.308606  0.034768  0.680208  1
  Li  Li7300  1  0.034768  0.308606  0.680208  1
  Li  Li7301  1  0.308606  0.965232  0.319792  1
  Li  Li7302  1  0.965232  0.691394  0.680208  1
  Li  Li7303  1  0.691394  0.034768  0.319792  1
  Li  Li7304  1  0.319792  0.034768  0.691394  1
  Li  Li7305  1  0.034768  0.680208  0.308606  1
  Li  Li7306  1  0.680208  0.965232  0.691394  1
  Li  Li7307  1  0.965232  0.319792  0.308606  1
  Li  Li7308  1  0.319792  0.965232  0.308606  1
  Li  Li7309  1  0.965232  0.680208  0.691394  1
  Li  Li7310  1  0.680208  0.034768  0.308606  1
  Li  Li7311  1  0.034768  0.319792  0.691394  1
  Li  Li7312  1  0.691394  0.319792  0.034768  1
  Li  Li7313  1  0.691394  0.680208  0.965232  1
  Li  Li7314  1  0.680208  0.308606  0.034768  1
  Li  Li7315  1  0.308606  0.319792  0.965232  1
  Li  Li7316  1  0.319792  0.691394  0.034768  1
  Li  Li7317  1  0.308606  0.680208  0.034768  1
  Li  Li7318  1  0.680208  0.691394  0.965232  1
  Li  Li7319  1  0.319792  0.308606  0.965232  1
  Li  Li7320  1  0.034768  0.191394  0.819792  1
  Li  Li7321  1  0.691394  0.465232  0.180208  1
  Li  Li7322  1  0.965232  0.808606  0.819792  1
  Li  Li7323  1  0.308606  0.534768  0.180208  1
  Li  Li7324  1  0.034768  0.808606  0.180208  1
  Li  Li7325  1  0.308606  0.465232  0.819792  1
  Li  Li7326  1  0.965232  0.191394  0.180208  1
  Li  Li7327  1  0.691394  0.534768  0.819792  1
  Li  Li7328  1  0.319792  0.534768  0.191394  1
  Li  Li7329  1  0.034768  0.180208  0.808606  1
  Li  Li7330  1  0.680208  0.465232  0.191394  1
  Li  Li7331  1  0.965232  0.819792  0.808606  1
  Li  Li7332  1  0.319792  0.465232  0.808606  1
  Li  Li7333  1  0.965232  0.180208  0.191394  1
  Li  Li7334  1  0.680208  0.534768  0.808606  1
  Li  Li7335  1  0.034768  0.819792  0.191394  1
  Li  Li7336  1  0.691394  0.819792  0.534768  1
  Li  Li7337  1  0.691394  0.180208  0.465232  1
  Li  Li7338  1  0.680208  0.808606  0.534768  1
  Li  Li7339  1  0.308606  0.819792  0.465232  1
  Li  Li7340  1  0.319792  0.191394  0.534768  1
  Li  Li7341  1  0.308606  0.180208  0.534768  1
  Li  Li7342  1  0.680208  0.191394  0.465232  1
  Li  Li7343  1  0.319792  0.808606  0.465232  1
  Li  Li7344  1  0.534768  0.691394  0.819792  1
  Li  Li7345  1  0.191394  0.965232  0.180208  1
  Li  Li7346  1  0.465232  0.308606  0.819792  1
  Li  Li7347  1  0.808606  0.034768  0.180208  1
  Li  Li7348  1  0.534768  0.308606  0.180208  1
  Li  Li7349  1  0.808606  0.965232  0.819792  1
  Li  Li7350  1  0.465232  0.691394  0.180208  1
  Li  Li7351  1  0.191394  0.034768  0.819792  1
  Li  Li7352  1  0.819792  0.034768  0.191394  1
  Li  Li7353  1  0.534768  0.680208  0.808606  1
  Li  Li7354  1  0.180208  0.965232  0.191394  1
  Li  Li7355  1  0.465232  0.319792  0.808606  1
  Li  Li7356  1  0.819792  0.965232  0.808606  1
  Li  Li7357  1  0.465232  0.680208  0.191394  1
  Li  Li7358  1  0.180208  0.034768  0.808606  1
  Li  Li7359  1  0.534768  0.319792  0.191394  1
  Li  Li7360  1  0.191394  0.319792  0.534768  1
  Li  Li7361  1  0.191394  0.680208  0.465232  1
  Li  Li7362  1  0.180208  0.308606  0.534768  1
  Li  Li7363  1  0.808606  0.319792  0.465232  1
  Li  Li7364  1  0.819792  0.691394  0.534768  1
  Li  Li7365  1  0.808606  0.680208  0.534768  1
  Li  Li7366  1  0.180208  0.691394  0.465232  1
  Li  Li7367  1  0.819792  0.308606  0.465232  1
  Li  Li7368  1  0.534768  0.191394  0.319792  1
  Li  Li7369  1  0.191394  0.465232  0.680208  1
  Li  Li7370  1  0.465232  0.808606  0.319792  1
  Li  Li7371  1  0.808606  0.534768  0.680208  1
  Li  Li7372  1  0.534768  0.808606  0.680208  1
  Li  Li7373  1  0.808606  0.465232  0.319792  1
  Li  Li7374  1  0.465232  0.191394  0.680208  1
  Li  Li7375  1  0.191394  0.534768  0.319792  1
  Li  Li7376  1  0.819792  0.534768  0.691394  1
  Li  Li7377  1  0.534768  0.180208  0.308606  1
  Li  Li7378  1  0.180208  0.465232  0.691394  1
  Li  Li7379  1  0.465232  0.819792  0.308606  1
  Li  Li7380  1  0.819792  0.465232  0.308606  1
  Li  Li7381  1  0.465232  0.180208  0.691394  1
  Li  Li7382  1  0.180208  0.534768  0.308606  1
  Li  Li7383  1  0.534768  0.819792  0.691394  1
  Li  Li7384  1  0.191394  0.819792  0.034768  1
  Li  Li7385  1  0.191394  0.180208  0.965232  1
  Li  Li7386  1  0.180208  0.808606  0.034768  1
  Li  Li7387  1  0.808606  0.819792  0.965232  1
  Li  Li7388  1  0.819792  0.191394  0.034768  1
  Li  Li7389  1  0.808606  0.180208  0.034768  1
  Li  Li7390  1  0.180208  0.191394  0.965232  1
  Li  Li7391  1  0.819792  0.808606  0.965232  1
  Li  Li7392  1  0.231863  0.980611  0.212874  1
  Li  Li7393  1  0.980611  0.768137  0.787126  1
  Li  Li7394  1  0.768137  0.019389  0.212874  1
  Li  Li7395  1  0.019389  0.231863  0.787126  1
  Li  Li7396  1  0.231863  0.019389  0.787126  1
  Li  Li7397  1  0.019389  0.768137  0.212874  1
  Li  Li7398  1  0.768137  0.980611  0.787126  1
  Li  Li7399  1  0.980611  0.231863  0.212874  1
  Li  Li7400  1  0.212874  0.231863  0.980611  1
  Li  Li7401  1  0.231863  0.787126  0.019389  1
  Li  Li7402  1  0.787126  0.768137  0.980611  1
  Li  Li7403  1  0.768137  0.212874  0.019389  1
  Li  Li7404  1  0.212874  0.768137  0.019389  1
  Li  Li7405  1  0.768137  0.787126  0.980611  1
  Li  Li7406  1  0.787126  0.231863  0.019389  1
  Li  Li7407  1  0.231863  0.212874  0.980611  1
  Li  Li7408  1  0.980611  0.212874  0.231863  1
  Li  Li7409  1  0.980611  0.787126  0.768137  1
  Li  Li7410  1  0.787126  0.019389  0.231863  1
  Li  Li7411  1  0.019389  0.212874  0.768137  1
  Li  Li7412  1  0.212874  0.980611  0.231863  1
  Li  Li7413  1  0.019389  0.787126  0.231863  1
  Li  Li7414  1  0.787126  0.980611  0.768137  1
  Li  Li7415  1  0.212874  0.019389  0.768137  1
  Li  Li7416  1  0.231863  0.480611  0.712874  1
  Li  Li7417  1  0.980611  0.268137  0.287126  1
  Li  Li7418  1  0.768137  0.519389  0.712874  1
  Li  Li7419  1  0.019389  0.731863  0.287126  1
  Li  Li7420  1  0.231863  0.519389  0.287126  1
  Li  Li7421  1  0.019389  0.268137  0.712874  1
  Li  Li7422  1  0.768137  0.480611  0.287126  1
  Li  Li7423  1  0.980611  0.731863  0.712874  1
  Li  Li7424  1  0.212874  0.731863  0.480611  1
  Li  Li7425  1  0.231863  0.287126  0.519389  1
  Li  Li7426  1  0.787126  0.268137  0.480611  1
  Li  Li7427  1  0.768137  0.712874  0.519389  1
  Li  Li7428  1  0.212874  0.268137  0.519389  1
  Li  Li7429  1  0.768137  0.287126  0.480611  1
  Li  Li7430  1  0.787126  0.731863  0.519389  1
  Li  Li7431  1  0.231863  0.712874  0.480611  1
  Li  Li7432  1  0.980611  0.712874  0.731863  1
  Li  Li7433  1  0.980611  0.287126  0.268137  1
  Li  Li7434  1  0.787126  0.519389  0.731863  1
  Li  Li7435  1  0.019389  0.712874  0.268137  1
  Li  Li7436  1  0.212874  0.480611  0.731863  1
  Li  Li7437  1  0.019389  0.287126  0.731863  1
  Li  Li7438  1  0.787126  0.480611  0.268137  1
  Li  Li7439  1  0.212874  0.519389  0.268137  1
  Li  Li7440  1  0.731863  0.980611  0.712874  1
  Li  Li7441  1  0.480611  0.768137  0.287126  1
  Li  Li7442  1  0.268137  0.019389  0.712874  1
  Li  Li7443  1  0.519389  0.231863  0.287126  1
  Li  Li7444  1  0.731863  0.019389  0.287126  1
  Li  Li7445  1  0.519389  0.768137  0.712874  1
  Li  Li7446  1  0.268137  0.980611  0.287126  1
  Li  Li7447  1  0.480611  0.231863  0.712874  1
  Li  Li7448  1  0.712874  0.231863  0.480611  1
  Li  Li7449  1  0.731863  0.787126  0.519389  1
  Li  Li7450  1  0.287126  0.768137  0.480611  1
  Li  Li7451  1  0.268137  0.212874  0.519389  1
  Li  Li7452  1  0.712874  0.768137  0.519389  1
  Li  Li7453  1  0.268137  0.787126  0.480611  1
  Li  Li7454  1  0.287126  0.231863  0.519389  1
  Li  Li7455  1  0.731863  0.212874  0.480611  1
  Li  Li7456  1  0.480611  0.212874  0.731863  1
  Li  Li7457  1  0.480611  0.787126  0.268137  1
  Li  Li7458  1  0.287126  0.019389  0.731863  1
  Li  Li7459  1  0.519389  0.212874  0.268137  1
  Li  Li7460  1  0.712874  0.980611  0.731863  1
  Li  Li7461  1  0.519389  0.787126  0.731863  1
  Li  Li7462  1  0.287126  0.980611  0.268137  1
  Li  Li7463  1  0.712874  0.019389  0.268137  1
  Li  Li7464  1  0.731863  0.480611  0.212874  1
  Li  Li7465  1  0.480611  0.268137  0.787126  1
  Li  Li7466  1  0.268137  0.519389  0.212874  1
  Li  Li7467  1  0.519389  0.731863  0.787126  1
  Li  Li7468  1  0.731863  0.519389  0.787126  1
  Li  Li7469  1  0.519389  0.268137  0.212874  1
  Li  Li7470  1  0.268137  0.480611  0.787126  1
  Li  Li7471  1  0.480611  0.731863  0.212874  1
  Li  Li7472  1  0.712874  0.731863  0.980611  1
  Li  Li7473  1  0.731863  0.287126  0.019389  1
  Li  Li7474  1  0.287126  0.268137  0.980611  1
  Li  Li7475  1  0.268137  0.712874  0.019389  1
  Li  Li7476  1  0.712874  0.268137  0.019389  1
  Li  Li7477  1  0.268137  0.287126  0.980611  1
  Li  Li7478  1  0.287126  0.731863  0.019389  1
  Li  Li7479  1  0.731863  0.712874  0.980611  1
  Li  Li7480  1  0.480611  0.712874  0.231863  1
  Li  Li7481  1  0.480611  0.287126  0.768137  1
  Li  Li7482  1  0.287126  0.519389  0.231863  1
  Li  Li7483  1  0.519389  0.712874  0.768137  1
  Li  Li7484  1  0.712874  0.480611  0.231863  1
  Li  Li7485  1  0.519389  0.287126  0.231863  1
  Li  Li7486  1  0.287126  0.480611  0.768137  1
  Li  Li7487  1  0.712874  0.519389  0.768137  1
  Li  Li7488  1  0.261197  0.574791  0.088348  1
  Li  Li7489  1  0.574791  0.738803  0.911652  1
  Li  Li7490  1  0.738803  0.425209  0.088348  1
  Li  Li7491  1  0.425209  0.261197  0.911652  1
  Li  Li7492  1  0.261197  0.425209  0.911652  1
  Li  Li7493  1  0.425209  0.738803  0.088348  1
  Li  Li7494  1  0.738803  0.574791  0.911652  1
  Li  Li7495  1  0.574791  0.261197  0.088348  1
  Li  Li7496  1  0.088348  0.261197  0.574791  1
  Li  Li7497  1  0.261197  0.911652  0.425209  1
  Li  Li7498  1  0.911652  0.738803  0.574791  1
  Li  Li7499  1  0.738803  0.088348  0.425209  1
  Li  Li7500  1  0.088348  0.738803  0.425209  1
  Li  Li7501  1  0.738803  0.911652  0.574791  1
  Li  Li7502  1  0.911652  0.261197  0.425209  1
  Li  Li7503  1  0.261197  0.088348  0.574791  1
  Li  Li7504  1  0.574791  0.088348  0.261197  1
  Li  Li7505  1  0.574791  0.911652  0.738803  1
  Li  Li7506  1  0.911652  0.425209  0.261197  1
  Li  Li7507  1  0.425209  0.088348  0.738803  1
  Li  Li7508  1  0.088348  0.574791  0.261197  1
  Li  Li7509  1  0.425209  0.911652  0.261197  1
  Li  Li7510  1  0.911652  0.574791  0.738803  1
  Li  Li7511  1  0.088348  0.425209  0.738803  1
  Li  Li7512  1  0.261197  0.074791  0.588348  1
  Li  Li7513  1  0.574791  0.238803  0.411652  1
  Li  Li7514  1  0.738803  0.925209  0.588348  1
  Li  Li7515  1  0.425209  0.761197  0.411652  1
  Li  Li7516  1  0.261197  0.925209  0.411652  1
  Li  Li7517  1  0.425209  0.238803  0.588348  1
  Li  Li7518  1  0.738803  0.074791  0.411652  1
  Li  Li7519  1  0.574791  0.761197  0.588348  1
  Li  Li7520  1  0.088348  0.761197  0.074791  1
  Li  Li7521  1  0.261197  0.411652  0.925209  1
  Li  Li7522  1  0.911652  0.238803  0.074791  1
  Li  Li7523  1  0.738803  0.588348  0.925209  1
  Li  Li7524  1  0.088348  0.238803  0.925209  1
  Li  Li7525  1  0.738803  0.411652  0.074791  1
  Li  Li7526  1  0.911652  0.761197  0.925209  1
  Li  Li7527  1  0.261197  0.588348  0.074791  1
  Li  Li7528  1  0.574791  0.588348  0.761197  1
  Li  Li7529  1  0.574791  0.411652  0.238803  1
  Li  Li7530  1  0.911652  0.925209  0.761197  1
  Li  Li7531  1  0.425209  0.588348  0.238803  1
  Li  Li7532  1  0.088348  0.074791  0.761197  1
  Li  Li7533  1  0.425209  0.411652  0.761197  1
  Li  Li7534  1  0.911652  0.074791  0.238803  1
  Li  Li7535  1  0.088348  0.925209  0.238803  1
  Li  Li7536  1  0.761197  0.574791  0.588348  1
  Li  Li7537  1  0.074791  0.738803  0.411652  1
  Li  Li7538  1  0.238803  0.425209  0.588348  1
  Li  Li7539  1  0.925209  0.261197  0.411652  1
  Li  Li7540  1  0.761197  0.425209  0.411652  1
  Li  Li7541  1  0.925209  0.738803  0.588348  1
  Li  Li7542  1  0.238803  0.574791  0.411652  1
  Li  Li7543  1  0.074791  0.261197  0.588348  1
  Li  Li7544  1  0.588348  0.261197  0.074791  1
  Li  Li7545  1  0.761197  0.911652  0.925209  1
  Li  Li7546  1  0.411652  0.738803  0.074791  1
  Li  Li7547  1  0.238803  0.088348  0.925209  1
  Li  Li7548  1  0.588348  0.738803  0.925209  1
  Li  Li7549  1  0.238803  0.911652  0.074791  1
  Li  Li7550  1  0.411652  0.261197  0.925209  1
  Li  Li7551  1  0.761197  0.088348  0.074791  1
  Li  Li7552  1  0.074791  0.088348  0.761197  1
  Li  Li7553  1  0.074791  0.911652  0.238803  1
  Li  Li7554  1  0.411652  0.425209  0.761197  1
  Li  Li7555  1  0.925209  0.088348  0.238803  1
  Li  Li7556  1  0.588348  0.574791  0.761197  1
  Li  Li7557  1  0.925209  0.911652  0.761197  1
  Li  Li7558  1  0.411652  0.574791  0.238803  1
  Li  Li7559  1  0.588348  0.425209  0.238803  1
  Li  Li7560  1  0.761197  0.074791  0.088348  1
  Li  Li7561  1  0.074791  0.238803  0.911652  1
  Li  Li7562  1  0.238803  0.925209  0.088348  1
  Li  Li7563  1  0.925209  0.761197  0.911652  1
  Li  Li7564  1  0.761197  0.925209  0.911652  1
  Li  Li7565  1  0.925209  0.238803  0.088348  1
  Li  Li7566  1  0.238803  0.074791  0.911652  1
  Li  Li7567  1  0.074791  0.761197  0.088348  1
  Li  Li7568  1  0.588348  0.761197  0.574791  1
  Li  Li7569  1  0.761197  0.411652  0.425209  1
  Li  Li7570  1  0.411652  0.238803  0.574791  1
  Li  Li7571  1  0.238803  0.588348  0.425209  1
  Li  Li7572  1  0.588348  0.238803  0.425209  1
  Li  Li7573  1  0.238803  0.411652  0.574791  1
  Li  Li7574  1  0.411652  0.761197  0.425209  1
  Li  Li7575  1  0.761197  0.588348  0.574791  1
  Li  Li7576  1  0.074791  0.588348  0.261197  1
  Li  Li7577  1  0.074791  0.411652  0.738803  1
  Li  Li7578  1  0.411652  0.925209  0.261197  1
  Li  Li7579  1  0.925209  0.588348  0.738803  1
  Li  Li7580  1  0.588348  0.074791  0.261197  1
  Li  Li7581  1  0.925209  0.411652  0.261197  1
  Li  Li7582  1  0.411652  0.074791  0.738803  1
  Li  Li7583  1  0.588348  0.925209  0.738803  1
  Li  Li7584  1  0.015791  0.714639  0.299050  1
  Li  Li7585  1  0.714639  0.984209  0.700950  1
  Li  Li7586  1  0.984209  0.285361  0.299050  1
  Li  Li7587  1  0.285361  0.015791  0.700950  1
  Li  Li7588  1  0.015791  0.285361  0.700950  1
  Li  Li7589  1  0.285361  0.984209  0.299050  1
  Li  Li7590  1  0.984209  0.714639  0.700950  1
  Li  Li7591  1  0.714639  0.015791  0.299050  1
  Li  Li7592  1  0.299050  0.015791  0.714639  1
  Li  Li7593  1  0.015791  0.700950  0.285361  1
  Li  Li7594  1  0.700950  0.984209  0.714639  1
  Li  Li7595  1  0.984209  0.299050  0.285361  1
  Li  Li7596  1  0.299050  0.984209  0.285361  1
  Li  Li7597  1  0.984209  0.700950  0.714639  1
  Li  Li7598  1  0.700950  0.015791  0.285361  1
  Li  Li7599  1  0.015791  0.299050  0.714639  1
  Li  Li7600  1  0.714639  0.299050  0.015791  1
  Li  Li7601  1  0.714639  0.700950  0.984209  1
  Li  Li7602  1  0.700950  0.285361  0.015791  1
  Li  Li7603  1  0.285361  0.299050  0.984209  1
  Li  Li7604  1  0.299050  0.714639  0.015791  1
  Li  Li7605  1  0.285361  0.700950  0.015791  1
  Li  Li7606  1  0.700950  0.714639  0.984209  1
  Li  Li7607  1  0.299050  0.285361  0.984209  1
  Li  Li7608  1  0.015791  0.214639  0.799050  1
  Li  Li7609  1  0.714639  0.484209  0.200950  1
  Li  Li7610  1  0.984209  0.785361  0.799050  1
  Li  Li7611  1  0.285361  0.515791  0.200950  1
  Li  Li7612  1  0.015791  0.785361  0.200950  1
  Li  Li7613  1  0.285361  0.484209  0.799050  1
  Li  Li7614  1  0.984209  0.214639  0.200950  1
  Li  Li7615  1  0.714639  0.515791  0.799050  1
  Li  Li7616  1  0.299050  0.515791  0.214639  1
  Li  Li7617  1  0.015791  0.200950  0.785361  1
  Li  Li7618  1  0.700950  0.484209  0.214639  1
  Li  Li7619  1  0.984209  0.799050  0.785361  1
  Li  Li7620  1  0.299050  0.484209  0.785361  1
  Li  Li7621  1  0.984209  0.200950  0.214639  1
  Li  Li7622  1  0.700950  0.515791  0.785361  1
  Li  Li7623  1  0.015791  0.799050  0.214639  1
  Li  Li7624  1  0.714639  0.799050  0.515791  1
  Li  Li7625  1  0.714639  0.200950  0.484209  1
  Li  Li7626  1  0.700950  0.785361  0.515791  1
  Li  Li7627  1  0.285361  0.799050  0.484209  1
  Li  Li7628  1  0.299050  0.214639  0.515791  1
  Li  Li7629  1  0.285361  0.200950  0.515791  1
  Li  Li7630  1  0.700950  0.214639  0.484209  1
  Li  Li7631  1  0.299050  0.785361  0.484209  1
  Li  Li7632  1  0.515791  0.714639  0.799050  1
  Li  Li7633  1  0.214639  0.984209  0.200950  1
  Li  Li7634  1  0.484209  0.285361  0.799050  1
  Li  Li7635  1  0.785361  0.015791  0.200950  1
  Li  Li7636  1  0.515791  0.285361  0.200950  1
  Li  Li7637  1  0.785361  0.984209  0.799050  1
  Li  Li7638  1  0.484209  0.714639  0.200950  1
  Li  Li7639  1  0.214639  0.015791  0.799050  1
  Li  Li7640  1  0.799050  0.015791  0.214639  1
  Li  Li7641  1  0.515791  0.700950  0.785361  1
  Li  Li7642  1  0.200950  0.984209  0.214639  1
  Li  Li7643  1  0.484209  0.299050  0.785361  1
  Li  Li7644  1  0.799050  0.984209  0.785361  1
  Li  Li7645  1  0.484209  0.700950  0.214639  1
  Li  Li7646  1  0.200950  0.015791  0.785361  1
  Li  Li7647  1  0.515791  0.299050  0.214639  1
  Li  Li7648  1  0.214639  0.299050  0.515791  1
  Li  Li7649  1  0.214639  0.700950  0.484209  1
  Li  Li7650  1  0.200950  0.285361  0.515791  1
  Li  Li7651  1  0.785361  0.299050  0.484209  1
  Li  Li7652  1  0.799050  0.714639  0.515791  1
  Li  Li7653  1  0.785361  0.700950  0.515791  1
  Li  Li7654  1  0.200950  0.714639  0.484209  1
  Li  Li7655  1  0.799050  0.285361  0.484209  1
  Li  Li7656  1  0.515791  0.214639  0.299050  1
  Li  Li7657  1  0.214639  0.484209  0.700950  1
  Li  Li7658  1  0.484209  0.785361  0.299050  1
  Li  Li7659  1  0.785361  0.515791  0.700950  1
  Li  Li7660  1  0.515791  0.785361  0.700950  1
  Li  Li7661  1  0.785361  0.484209  0.299050  1
  Li  Li7662  1  0.484209  0.214639  0.700950  1
  Li  Li7663  1  0.214639  0.515791  0.299050  1
  Li  Li7664  1  0.799050  0.515791  0.714639  1
  Li  Li7665  1  0.515791  0.200950  0.285361  1
  Li  Li7666  1  0.200950  0.484209  0.714639  1
  Li  Li7667  1  0.484209  0.799050  0.285361  1
  Li  Li7668  1  0.799050  0.484209  0.285361  1
  Li  Li7669  1  0.484209  0.200950  0.714639  1
  Li  Li7670  1  0.200950  0.515791  0.285361  1
  Li  Li7671  1  0.515791  0.799050  0.714639  1
  Li  Li7672  1  0.214639  0.799050  0.015791  1
  Li  Li7673  1  0.214639  0.200950  0.984209  1
  Li  Li7674  1  0.200950  0.785361  0.015791  1
  Li  Li7675  1  0.785361  0.799050  0.984209  1
  Li  Li7676  1  0.799050  0.214639  0.015791  1
  Li  Li7677  1  0.785361  0.200950  0.015791  1
  Li  Li7678  1  0.200950  0.214639  0.984209  1
  Li  Li7679  1  0.799050  0.785361  0.984209  1
  Li  Li7680  1  0.225589  0.734330  0.497895  1
  Li  Li7681  1  0.734330  0.774411  0.502105  1
  Li  Li7682  1  0.774411  0.265670  0.497895  1
  Li  Li7683  1  0.265670  0.225589  0.502105  1
  Li  Li7684  1  0.225589  0.265670  0.502105  1
  Li  Li7685  1  0.265670  0.774411  0.497895  1
  Li  Li7686  1  0.774411  0.734330  0.502105  1
  Li  Li7687  1  0.734330  0.225589  0.497895  1
  Li  Li7688  1  0.497895  0.225589  0.734330  1
  Li  Li7689  1  0.225589  0.502105  0.265670  1
  Li  Li7690  1  0.502105  0.774411  0.734330  1
  Li  Li7691  1  0.774411  0.497895  0.265670  1
  Li  Li7692  1  0.497895  0.774411  0.265670  1
  Li  Li7693  1  0.774411  0.502105  0.734330  1
  Li  Li7694  1  0.502105  0.225589  0.265670  1
  Li  Li7695  1  0.225589  0.497895  0.734330  1
  Li  Li7696  1  0.734330  0.497895  0.225589  1
  Li  Li7697  1  0.734330  0.502105  0.774411  1
  Li  Li7698  1  0.502105  0.265670  0.225589  1
  Li  Li7699  1  0.265670  0.497895  0.774411  1
  Li  Li7700  1  0.497895  0.734330  0.225589  1
  Li  Li7701  1  0.265670  0.502105  0.225589  1
  Li  Li7702  1  0.502105  0.734330  0.774411  1
  Li  Li7703  1  0.497895  0.265670  0.774411  1
  Li  Li7704  1  0.225589  0.234330  0.997895  1
  Li  Li7705  1  0.734330  0.274411  0.002105  1
  Li  Li7706  1  0.774411  0.765670  0.997895  1
  Li  Li7707  1  0.265670  0.725589  0.002105  1
  Li  Li7708  1  0.225589  0.765670  0.002105  1
  Li  Li7709  1  0.265670  0.274411  0.997895  1
  Li  Li7710  1  0.774411  0.234330  0.002105  1
  Li  Li7711  1  0.734330  0.725589  0.997895  1
  Li  Li7712  1  0.497895  0.725589  0.234330  1
  Li  Li7713  1  0.225589  0.002105  0.765670  1
  Li  Li7714  1  0.502105  0.274411  0.234330  1
  Li  Li7715  1  0.774411  0.997895  0.765670  1
  Li  Li7716  1  0.497895  0.274411  0.765670  1
  Li  Li7717  1  0.774411  0.002105  0.234330  1
  Li  Li7718  1  0.502105  0.725589  0.765670  1
  Li  Li7719  1  0.225589  0.997895  0.234330  1
  Li  Li7720  1  0.734330  0.997895  0.725589  1
  Li  Li7721  1  0.734330  0.002105  0.274411  1
  Li  Li7722  1  0.502105  0.765670  0.725589  1
  Li  Li7723  1  0.265670  0.997895  0.274411  1
  Li  Li7724  1  0.497895  0.234330  0.725589  1
  Li  Li7725  1  0.265670  0.002105  0.725589  1
  Li  Li7726  1  0.502105  0.234330  0.274411  1
  Li  Li7727  1  0.497895  0.765670  0.274411  1
  Li  Li7728  1  0.725589  0.734330  0.997895  1
  Li  Li7729  1  0.234330  0.774411  0.002105  1
  Li  Li7730  1  0.274411  0.265670  0.997895  1
  Li  Li7731  1  0.765670  0.225589  0.002105  1
  Li  Li7732  1  0.725589  0.265670  0.002105  1
  Li  Li7733  1  0.765670  0.774411  0.997895  1
  Li  Li7734  1  0.274411  0.734330  0.002105  1
  Li  Li7735  1  0.234330  0.225589  0.997895  1
  Li  Li7736  1  0.997895  0.225589  0.234330  1
  Li  Li7737  1  0.725589  0.502105  0.765670  1
  Li  Li7738  1  0.002105  0.774411  0.234330  1
  Li  Li7739  1  0.274411  0.497895  0.765670  1
  Li  Li7740  1  0.997895  0.774411  0.765670  1
  Li  Li7741  1  0.274411  0.502105  0.234330  1
  Li  Li7742  1  0.002105  0.225589  0.765670  1
  Li  Li7743  1  0.725589  0.497895  0.234330  1
  Li  Li7744  1  0.234330  0.497895  0.725589  1
  Li  Li7745  1  0.234330  0.502105  0.274411  1
  Li  Li7746  1  0.002105  0.265670  0.725589  1
  Li  Li7747  1  0.765670  0.497895  0.274411  1
  Li  Li7748  1  0.997895  0.734330  0.725589  1
  Li  Li7749  1  0.765670  0.502105  0.725589  1
  Li  Li7750  1  0.002105  0.734330  0.274411  1
  Li  Li7751  1  0.997895  0.265670  0.274411  1
  Li  Li7752  1  0.725589  0.234330  0.497895  1
  Li  Li7753  1  0.234330  0.274411  0.502105  1
  Li  Li7754  1  0.274411  0.765670  0.497895  1
  Li  Li7755  1  0.765670  0.725589  0.502105  1
  Li  Li7756  1  0.725589  0.765670  0.502105  1
  Li  Li7757  1  0.765670  0.274411  0.497895  1
  Li  Li7758  1  0.274411  0.234330  0.502105  1
  Li  Li7759  1  0.234330  0.725589  0.497895  1
  Li  Li7760  1  0.997895  0.725589  0.734330  1
  Li  Li7761  1  0.725589  0.002105  0.265670  1
  Li  Li7762  1  0.002105  0.274411  0.734330  1
  Li  Li7763  1  0.274411  0.997895  0.265670  1
  Li  Li7764  1  0.997895  0.274411  0.265670  1
  Li  Li7765  1  0.274411  0.002105  0.734330  1
  Li  Li7766  1  0.002105  0.725589  0.265670  1
  Li  Li7767  1  0.725589  0.997895  0.734330  1
  Li  Li7768  1  0.234330  0.997895  0.225589  1
  Li  Li7769  1  0.234330  0.002105  0.774411  1
  Li  Li7770  1  0.002105  0.765670  0.225589  1
  Li  Li7771  1  0.765670  0.997895  0.774411  1
  Li  Li7772  1  0.997895  0.234330  0.225589  1
  Li  Li7773  1  0.765670  0.002105  0.225589  1
  Li  Li7774  1  0.002105  0.234330  0.774411  1
  Li  Li7775  1  0.997895  0.765670  0.774411  1
  Li  Li7776  1  0.304049  0.964379  0.303166  1
  Li  Li7777  1  0.964379  0.695951  0.696834  1
  Li  Li7778  1  0.695951  0.035621  0.303166  1
  Li  Li7779  1  0.035621  0.304049  0.696834  1
  Li  Li7780  1  0.304049  0.035621  0.696834  1
  Li  Li7781  1  0.035621  0.695951  0.303166  1
  Li  Li7782  1  0.695951  0.964379  0.696834  1
  Li  Li7783  1  0.964379  0.304049  0.303166  1
  Li  Li7784  1  0.303166  0.304049  0.964379  1
  Li  Li7785  1  0.304049  0.696834  0.035621  1
  Li  Li7786  1  0.696834  0.695951  0.964379  1
  Li  Li7787  1  0.695951  0.303166  0.035621  1
  Li  Li7788  1  0.303166  0.695951  0.035621  1
  Li  Li7789  1  0.695951  0.696834  0.964379  1
  Li  Li7790  1  0.696834  0.304049  0.035621  1
  Li  Li7791  1  0.304049  0.303166  0.964379  1
  Li  Li7792  1  0.964379  0.303166  0.304049  1
  Li  Li7793  1  0.964379  0.696834  0.695951  1
  Li  Li7794  1  0.696834  0.035621  0.304049  1
  Li  Li7795  1  0.035621  0.303166  0.695951  1
  Li  Li7796  1  0.303166  0.964379  0.304049  1
  Li  Li7797  1  0.035621  0.696834  0.304049  1
  Li  Li7798  1  0.696834  0.964379  0.695951  1
  Li  Li7799  1  0.303166  0.035621  0.695951  1
  Li  Li7800  1  0.304049  0.464379  0.803166  1
  Li  Li7801  1  0.964379  0.195951  0.196834  1
  Li  Li7802  1  0.695951  0.535621  0.803166  1
  Li  Li7803  1  0.035621  0.804049  0.196834  1
  Li  Li7804  1  0.304049  0.535621  0.196834  1
  Li  Li7805  1  0.035621  0.195951  0.803166  1
  Li  Li7806  1  0.695951  0.464379  0.196834  1
  Li  Li7807  1  0.964379  0.804049  0.803166  1
  Li  Li7808  1  0.303166  0.804049  0.464379  1
  Li  Li7809  1  0.304049  0.196834  0.535621  1
  Li  Li7810  1  0.696834  0.195951  0.464379  1
  Li  Li7811  1  0.695951  0.803166  0.535621  1
  Li  Li7812  1  0.303166  0.195951  0.535621  1
  Li  Li7813  1  0.695951  0.196834  0.464379  1
  Li  Li7814  1  0.696834  0.804049  0.535621  1
  Li  Li7815  1  0.304049  0.803166  0.464379  1
  Li  Li7816  1  0.964379  0.803166  0.804049  1
  Li  Li7817  1  0.964379  0.196834  0.195951  1
  Li  Li7818  1  0.696834  0.535621  0.804049  1
  Li  Li7819  1  0.035621  0.803166  0.195951  1
  Li  Li7820  1  0.303166  0.464379  0.804049  1
  Li  Li7821  1  0.035621  0.196834  0.804049  1
  Li  Li7822  1  0.696834  0.464379  0.195951  1
  Li  Li7823  1  0.303166  0.535621  0.195951  1
  Li  Li7824  1  0.804049  0.964379  0.803166  1
  Li  Li7825  1  0.464379  0.695951  0.196834  1
  Li  Li7826  1  0.195951  0.035621  0.803166  1
  Li  Li7827  1  0.535621  0.304049  0.196834  1
  Li  Li7828  1  0.804049  0.035621  0.196834  1
  Li  Li7829  1  0.535621  0.695951  0.803166  1
  Li  Li7830  1  0.195951  0.964379  0.196834  1
  Li  Li7831  1  0.464379  0.304049  0.803166  1
  Li  Li7832  1  0.803166  0.304049  0.464379  1
  Li  Li7833  1  0.804049  0.696834  0.535621  1
  Li  Li7834  1  0.196834  0.695951  0.464379  1
  Li  Li7835  1  0.195951  0.303166  0.535621  1
  Li  Li7836  1  0.803166  0.695951  0.535621  1
  Li  Li7837  1  0.195951  0.696834  0.464379  1
  Li  Li7838  1  0.196834  0.304049  0.535621  1
  Li  Li7839  1  0.804049  0.303166  0.464379  1
  Li  Li7840  1  0.464379  0.303166  0.804049  1
  Li  Li7841  1  0.464379  0.696834  0.195951  1
  Li  Li7842  1  0.196834  0.035621  0.804049  1
  Li  Li7843  1  0.535621  0.303166  0.195951  1
  Li  Li7844  1  0.803166  0.964379  0.804049  1
  Li  Li7845  1  0.535621  0.696834  0.804049  1
  Li  Li7846  1  0.196834  0.964379  0.195951  1
  Li  Li7847  1  0.803166  0.035621  0.195951  1
  Li  Li7848  1  0.804049  0.464379  0.303166  1
  Li  Li7849  1  0.464379  0.195951  0.696834  1
  Li  Li7850  1  0.195951  0.535621  0.303166  1
  Li  Li7851  1  0.535621  0.804049  0.696834  1
  Li  Li7852  1  0.804049  0.535621  0.696834  1
  Li  Li7853  1  0.535621  0.195951  0.303166  1
  Li  Li7854  1  0.195951  0.464379  0.696834  1
  Li  Li7855  1  0.464379  0.804049  0.303166  1
  Li  Li7856  1  0.803166  0.804049  0.964379  1
  Li  Li7857  1  0.804049  0.196834  0.035621  1
  Li  Li7858  1  0.196834  0.195951  0.964379  1
  Li  Li7859  1  0.195951  0.803166  0.035621  1
  Li  Li7860  1  0.803166  0.195951  0.035621  1
  Li  Li7861  1  0.195951  0.196834  0.964379  1
  Li  Li7862  1  0.196834  0.804049  0.035621  1
  Li  Li7863  1  0.804049  0.803166  0.964379  1
  Li  Li7864  1  0.464379  0.803166  0.304049  1
  Li  Li7865  1  0.464379  0.196834  0.695951  1
  Li  Li7866  1  0.196834  0.535621  0.304049  1
  Li  Li7867  1  0.535621  0.803166  0.695951  1
  Li  Li7868  1  0.803166  0.464379  0.304049  1
  Li  Li7869  1  0.535621  0.196834  0.304049  1
  Li  Li7870  1  0.196834  0.464379  0.695951  1
  Li  Li7871  1  0.803166  0.535621  0.695951  1
  Li  Li7872  1  0.192482  0.951459  0.170821  1
  Li  Li7873  1  0.951459  0.807518  0.829179  1
  Li  Li7874  1  0.807518  0.048541  0.170821  1
  Li  Li7875  1  0.048541  0.192482  0.829179  1
  Li  Li7876  1  0.192482  0.048541  0.829179  1
  Li  Li7877  1  0.048541  0.807518  0.170821  1
  Li  Li7878  1  0.807518  0.951459  0.829179  1
  Li  Li7879  1  0.951459  0.192482  0.170821  1
  Li  Li7880  1  0.170821  0.192482  0.951459  1
  Li  Li7881  1  0.192482  0.829179  0.048541  1
  Li  Li7882  1  0.829179  0.807518  0.951459  1
  Li  Li7883  1  0.807518  0.170821  0.048541  1
  Li  Li7884  1  0.170821  0.807518  0.048541  1
  Li  Li7885  1  0.807518  0.829179  0.951459  1
  Li  Li7886  1  0.829179  0.192482  0.048541  1
  Li  Li7887  1  0.192482  0.170821  0.951459  1
  Li  Li7888  1  0.951459  0.170821  0.192482  1
  Li  Li7889  1  0.951459  0.829179  0.807518  1
  Li  Li7890  1  0.829179  0.048541  0.192482  1
  Li  Li7891  1  0.048541  0.170821  0.807518  1
  Li  Li7892  1  0.170821  0.951459  0.192482  1
  Li  Li7893  1  0.048541  0.829179  0.192482  1
  Li  Li7894  1  0.829179  0.951459  0.807518  1
  Li  Li7895  1  0.170821  0.048541  0.807518  1
  Li  Li7896  1  0.192482  0.451459  0.670821  1
  Li  Li7897  1  0.951459  0.307518  0.329179  1
  Li  Li7898  1  0.807518  0.548541  0.670821  1
  Li  Li7899  1  0.048541  0.692482  0.329179  1
  Li  Li7900  1  0.192482  0.548541  0.329179  1
  Li  Li7901  1  0.048541  0.307518  0.670821  1
  Li  Li7902  1  0.807518  0.451459  0.329179  1
  Li  Li7903  1  0.951459  0.692482  0.670821  1
  Li  Li7904  1  0.170821  0.692482  0.451459  1
  Li  Li7905  1  0.192482  0.329179  0.548541  1
  Li  Li7906  1  0.829179  0.307518  0.451459  1
  Li  Li7907  1  0.807518  0.670821  0.548541  1
  Li  Li7908  1  0.170821  0.307518  0.548541  1
  Li  Li7909  1  0.807518  0.329179  0.451459  1
  Li  Li7910  1  0.829179  0.692482  0.548541  1
  Li  Li7911  1  0.192482  0.670821  0.451459  1
  Li  Li7912  1  0.951459  0.670821  0.692482  1
  Li  Li7913  1  0.951459  0.329179  0.307518  1
  Li  Li7914  1  0.829179  0.548541  0.692482  1
  Li  Li7915  1  0.048541  0.670821  0.307518  1
  Li  Li7916  1  0.170821  0.451459  0.692482  1
  Li  Li7917  1  0.048541  0.329179  0.692482  1
  Li  Li7918  1  0.829179  0.451459  0.307518  1
  Li  Li7919  1  0.170821  0.548541  0.307518  1
  Li  Li7920  1  0.692482  0.951459  0.670821  1
  Li  Li7921  1  0.451459  0.807518  0.329179  1
  Li  Li7922  1  0.307518  0.048541  0.670821  1
  Li  Li7923  1  0.548541  0.192482  0.329179  1
  Li  Li7924  1  0.692482  0.048541  0.329179  1
  Li  Li7925  1  0.548541  0.807518  0.670821  1
  Li  Li7926  1  0.307518  0.951459  0.329179  1
  Li  Li7927  1  0.451459  0.192482  0.670821  1
  Li  Li7928  1  0.670821  0.192482  0.451459  1
  Li  Li7929  1  0.692482  0.829179  0.548541  1
  Li  Li7930  1  0.329179  0.807518  0.451459  1
  Li  Li7931  1  0.307518  0.170821  0.548541  1
  Li  Li7932  1  0.670821  0.807518  0.548541  1
  Li  Li7933  1  0.307518  0.829179  0.451459  1
  Li  Li7934  1  0.329179  0.192482  0.548541  1
  Li  Li7935  1  0.692482  0.170821  0.451459  1
  Li  Li7936  1  0.451459  0.170821  0.692482  1
  Li  Li7937  1  0.451459  0.829179  0.307518  1
  Li  Li7938  1  0.329179  0.048541  0.692482  1
  Li  Li7939  1  0.548541  0.170821  0.307518  1
  Li  Li7940  1  0.670821  0.951459  0.692482  1
  Li  Li7941  1  0.548541  0.829179  0.692482  1
  Li  Li7942  1  0.329179  0.951459  0.307518  1
  Li  Li7943  1  0.670821  0.048541  0.307518  1
  Li  Li7944  1  0.692482  0.451459  0.170821  1
  Li  Li7945  1  0.451459  0.307518  0.829179  1
  Li  Li7946  1  0.307518  0.548541  0.170821  1
  Li  Li7947  1  0.548541  0.692482  0.829179  1
  Li  Li7948  1  0.692482  0.548541  0.829179  1
  Li  Li7949  1  0.548541  0.307518  0.170821  1
  Li  Li7950  1  0.307518  0.451459  0.829179  1
  Li  Li7951  1  0.451459  0.692482  0.170821  1
  Li  Li7952  1  0.670821  0.692482  0.951459  1
  Li  Li7953  1  0.692482  0.329179  0.048541  1
  Li  Li7954  1  0.329179  0.307518  0.951459  1
  Li  Li7955  1  0.307518  0.670821  0.048541  1
  Li  Li7956  1  0.670821  0.307518  0.048541  1
  Li  Li7957  1  0.307518  0.329179  0.951459  1
  Li  Li7958  1  0.329179  0.692482  0.048541  1
  Li  Li7959  1  0.692482  0.670821  0.951459  1
  Li  Li7960  1  0.451459  0.670821  0.192482  1
  Li  Li7961  1  0.451459  0.329179  0.807518  1
  Li  Li7962  1  0.329179  0.548541  0.192482  1
  Li  Li7963  1  0.548541  0.670821  0.807518  1
  Li  Li7964  1  0.670821  0.451459  0.192482  1
  Li  Li7965  1  0.548541  0.329179  0.192482  1
  Li  Li7966  1  0.329179  0.451459  0.807518  1
  Li  Li7967  1  0.670821  0.548541  0.807518  1
  Li  Li7968  1  0.202831  0.976308  0.212503  1
  Li  Li7969  1  0.976308  0.797169  0.787497  1
  Li  Li7970  1  0.797169  0.023692  0.212503  1
  Li  Li7971  1  0.023692  0.202831  0.787497  1
  Li  Li7972  1  0.202831  0.023692  0.787497  1
  Li  Li7973  1  0.023692  0.797169  0.212503  1
  Li  Li7974  1  0.797169  0.976308  0.787497  1
  Li  Li7975  1  0.976308  0.202831  0.212503  1
  Li  Li7976  1  0.212503  0.202831  0.976308  1
  Li  Li7977  1  0.202831  0.787497  0.023692  1
  Li  Li7978  1  0.787497  0.797169  0.976308  1
  Li  Li7979  1  0.797169  0.212503  0.023692  1
  Li  Li7980  1  0.212503  0.797169  0.023692  1
  Li  Li7981  1  0.797169  0.787497  0.976308  1
  Li  Li7982  1  0.787497  0.202831  0.023692  1
  Li  Li7983  1  0.202831  0.212503  0.976308  1
  Li  Li7984  1  0.976308  0.212503  0.202831  1
  Li  Li7985  1  0.976308  0.787497  0.797169  1
  Li  Li7986  1  0.787497  0.023692  0.202831  1
  Li  Li7987  1  0.023692  0.212503  0.797169  1
  Li  Li7988  1  0.212503  0.976308  0.202831  1
  Li  Li7989  1  0.023692  0.787497  0.202831  1
  Li  Li7990  1  0.787497  0.976308  0.797169  1
  Li  Li7991  1  0.212503  0.023692  0.797169  1
  Li  Li7992  1  0.202831  0.476308  0.712503  1
  Li  Li7993  1  0.976308  0.297169  0.287497  1
  Li  Li7994  1  0.797169  0.523692  0.712503  1
  Li  Li7995  1  0.023692  0.702831  0.287497  1
  Li  Li7996  1  0.202831  0.523692  0.287497  1
  Li  Li7997  1  0.023692  0.297169  0.712503  1
  Li  Li7998  1  0.797169  0.476308  0.287497  1
  Li  Li7999  1  0.976308  0.702831  0.712503  1
  Li  Li8000  1  0.212503  0.702831  0.476308  1
  Li  Li8001  1  0.202831  0.287497  0.523692  1
  Li  Li8002  1  0.787497  0.297169  0.476308  1
  Li  Li8003  1  0.797169  0.712503  0.523692  1
  Li  Li8004  1  0.212503  0.297169  0.523692  1
  Li  Li8005  1  0.797169  0.287497  0.476308  1
  Li  Li8006  1  0.787497  0.702831  0.523692  1
  Li  Li8007  1  0.202831  0.712503  0.476308  1
  Li  Li8008  1  0.976308  0.712503  0.702831  1
  Li  Li8009  1  0.976308  0.287497  0.297169  1
  Li  Li8010  1  0.787497  0.523692  0.702831  1
  Li  Li8011  1  0.023692  0.712503  0.297169  1
  Li  Li8012  1  0.212503  0.476308  0.702831  1
  Li  Li8013  1  0.023692  0.287497  0.702831  1
  Li  Li8014  1  0.787497  0.476308  0.297169  1
  Li  Li8015  1  0.212503  0.523692  0.297169  1
  Li  Li8016  1  0.702831  0.976308  0.712503  1
  Li  Li8017  1  0.476308  0.797169  0.287497  1
  Li  Li8018  1  0.297169  0.023692  0.712503  1
  Li  Li8019  1  0.523692  0.202831  0.287497  1
  Li  Li8020  1  0.702831  0.023692  0.287497  1
  Li  Li8021  1  0.523692  0.797169  0.712503  1
  Li  Li8022  1  0.297169  0.976308  0.287497  1
  Li  Li8023  1  0.476308  0.202831  0.712503  1
  Li  Li8024  1  0.712503  0.202831  0.476308  1
  Li  Li8025  1  0.702831  0.787497  0.523692  1
  Li  Li8026  1  0.287497  0.797169  0.476308  1
  Li  Li8027  1  0.297169  0.212503  0.523692  1
  Li  Li8028  1  0.712503  0.797169  0.523692  1
  Li  Li8029  1  0.297169  0.787497  0.476308  1
  Li  Li8030  1  0.287497  0.202831  0.523692  1
  Li  Li8031  1  0.702831  0.212503  0.476308  1
  Li  Li8032  1  0.476308  0.212503  0.702831  1
  Li  Li8033  1  0.476308  0.787497  0.297169  1
  Li  Li8034  1  0.287497  0.023692  0.702831  1
  Li  Li8035  1  0.523692  0.212503  0.297169  1
  Li  Li8036  1  0.712503  0.976308  0.702831  1
  Li  Li8037  1  0.523692  0.787497  0.702831  1
  Li  Li8038  1  0.287497  0.976308  0.297169  1
  Li  Li8039  1  0.712503  0.023692  0.297169  1
  Li  Li8040  1  0.702831  0.476308  0.212503  1
  Li  Li8041  1  0.476308  0.297169  0.787497  1
  Li  Li8042  1  0.297169  0.523692  0.212503  1
  Li  Li8043  1  0.523692  0.702831  0.787497  1
  Li  Li8044  1  0.702831  0.523692  0.787497  1
  Li  Li8045  1  0.523692  0.297169  0.212503  1
  Li  Li8046  1  0.297169  0.476308  0.787497  1
  Li  Li8047  1  0.476308  0.702831  0.212503  1
  Li  Li8048  1  0.712503  0.702831  0.976308  1
  Li  Li8049  1  0.702831  0.287497  0.023692  1
  Li  Li8050  1  0.287497  0.297169  0.976308  1
  Li  Li8051  1  0.297169  0.712503  0.023692  1
  Li  Li8052  1  0.712503  0.297169  0.023692  1
  Li  Li8053  1  0.297169  0.287497  0.976308  1
  Li  Li8054  1  0.287497  0.702831  0.023692  1
  Li  Li8055  1  0.702831  0.712503  0.976308  1
  Li  Li8056  1  0.476308  0.712503  0.202831  1
  Li  Li8057  1  0.476308  0.287497  0.797169  1
  Li  Li8058  1  0.287497  0.523692  0.202831  1
  Li  Li8059  1  0.523692  0.712503  0.797169  1
  Li  Li8060  1  0.712503  0.476308  0.202831  1
  Li  Li8061  1  0.523692  0.287497  0.202831  1
  Li  Li8062  1  0.287497  0.476308  0.797169  1
  Li  Li8063  1  0.712503  0.523692  0.797169  1
  Li  Li8064  1  0.493211  0.775709  0.291609  1
  Li  Li8065  1  0.775709  0.506789  0.708391  1
  Li  Li8066  1  0.506789  0.224291  0.291609  1
  Li  Li8067  1  0.224291  0.493211  0.708391  1
  Li  Li8068  1  0.493211  0.224291  0.708391  1
  Li  Li8069  1  0.224291  0.506789  0.291609  1
  Li  Li8070  1  0.506789  0.775709  0.708391  1
  Li  Li8071  1  0.775709  0.493211  0.291609  1
  Li  Li8072  1  0.291609  0.493211  0.775709  1
  Li  Li8073  1  0.493211  0.708391  0.224291  1
  Li  Li8074  1  0.708391  0.506789  0.775709  1
  Li  Li8075  1  0.506789  0.291609  0.224291  1
  Li  Li8076  1  0.291609  0.506789  0.224291  1
  Li  Li8077  1  0.506789  0.708391  0.775709  1
  Li  Li8078  1  0.708391  0.493211  0.224291  1
  Li  Li8079  1  0.493211  0.291609  0.775709  1
  Li  Li8080  1  0.775709  0.291609  0.493211  1
  Li  Li8081  1  0.775709  0.708391  0.506789  1
  Li  Li8082  1  0.708391  0.224291  0.493211  1
  Li  Li8083  1  0.224291  0.291609  0.506789  1
  Li  Li8084  1  0.291609  0.775709  0.493211  1
  Li  Li8085  1  0.224291  0.708391  0.493211  1
  Li  Li8086  1  0.708391  0.775709  0.506789  1
  Li  Li8087  1  0.291609  0.224291  0.506789  1
  Li  Li8088  1  0.493211  0.275709  0.791609  1
  Li  Li8089  1  0.775709  0.006789  0.208391  1
  Li  Li8090  1  0.506789  0.724291  0.791609  1
  Li  Li8091  1  0.224291  0.993211  0.208391  1
  Li  Li8092  1  0.493211  0.724291  0.208391  1
  Li  Li8093  1  0.224291  0.006789  0.791609  1
  Li  Li8094  1  0.506789  0.275709  0.208391  1
  Li  Li8095  1  0.775709  0.993211  0.791609  1
  Li  Li8096  1  0.291609  0.993211  0.275709  1
  Li  Li8097  1  0.493211  0.208391  0.724291  1
  Li  Li8098  1  0.708391  0.006789  0.275709  1
  Li  Li8099  1  0.506789  0.791609  0.724291  1
  Li  Li8100  1  0.291609  0.006789  0.724291  1
  Li  Li8101  1  0.506789  0.208391  0.275709  1
  Li  Li8102  1  0.708391  0.993211  0.724291  1
  Li  Li8103  1  0.493211  0.791609  0.275709  1
  Li  Li8104  1  0.775709  0.791609  0.993211  1
  Li  Li8105  1  0.775709  0.208391  0.006789  1
  Li  Li8106  1  0.708391  0.724291  0.993211  1
  Li  Li8107  1  0.224291  0.791609  0.006789  1
  Li  Li8108  1  0.291609  0.275709  0.993211  1
  Li  Li8109  1  0.224291  0.208391  0.993211  1
  Li  Li8110  1  0.708391  0.275709  0.006789  1
  Li  Li8111  1  0.291609  0.724291  0.006789  1
  Li  Li8112  1  0.993211  0.775709  0.791609  1
  Li  Li8113  1  0.275709  0.506789  0.208391  1
  Li  Li8114  1  0.006789  0.224291  0.791609  1
  Li  Li8115  1  0.724291  0.493211  0.208391  1
  Li  Li8116  1  0.993211  0.224291  0.208391  1
  Li  Li8117  1  0.724291  0.506789  0.791609  1
  Li  Li8118  1  0.006789  0.775709  0.208391  1
  Li  Li8119  1  0.275709  0.493211  0.791609  1
  Li  Li8120  1  0.791609  0.493211  0.275709  1
  Li  Li8121  1  0.993211  0.708391  0.724291  1
  Li  Li8122  1  0.208391  0.506789  0.275709  1
  Li  Li8123  1  0.006789  0.291609  0.724291  1
  Li  Li8124  1  0.791609  0.506789  0.724291  1
  Li  Li8125  1  0.006789  0.708391  0.275709  1
  Li  Li8126  1  0.208391  0.493211  0.724291  1
  Li  Li8127  1  0.993211  0.291609  0.275709  1
  Li  Li8128  1  0.275709  0.291609  0.993211  1
  Li  Li8129  1  0.275709  0.708391  0.006789  1
  Li  Li8130  1  0.208391  0.224291  0.993211  1
  Li  Li8131  1  0.724291  0.291609  0.006789  1
  Li  Li8132  1  0.791609  0.775709  0.993211  1
  Li  Li8133  1  0.724291  0.708391  0.993211  1
  Li  Li8134  1  0.208391  0.775709  0.006789  1
  Li  Li8135  1  0.791609  0.224291  0.006789  1
  Li  Li8136  1  0.993211  0.275709  0.291609  1
  Li  Li8137  1  0.275709  0.006789  0.708391  1
  Li  Li8138  1  0.006789  0.724291  0.291609  1
  Li  Li8139  1  0.724291  0.993211  0.708391  1
  Li  Li8140  1  0.993211  0.724291  0.708391  1
  Li  Li8141  1  0.724291  0.006789  0.291609  1
  Li  Li8142  1  0.006789  0.275709  0.708391  1
  Li  Li8143  1  0.275709  0.993211  0.291609  1
  Li  Li8144  1  0.791609  0.993211  0.775709  1
  Li  Li8145  1  0.993211  0.208391  0.224291  1
  Li  Li8146  1  0.208391  0.006789  0.775709  1
  Li  Li8147  1  0.006789  0.791609  0.224291  1
  Li  Li8148  1  0.791609  0.006789  0.224291  1
  Li  Li8149  1  0.006789  0.208391  0.775709  1
  Li  Li8150  1  0.208391  0.993211  0.224291  1
  Li  Li8151  1  0.993211  0.791609  0.775709  1
  Li  Li8152  1  0.275709  0.791609  0.493211  1
  Li  Li8153  1  0.275709  0.208391  0.506789  1
  Li  Li8154  1  0.208391  0.724291  0.493211  1
  Li  Li8155  1  0.724291  0.791609  0.506789  1
  Li  Li8156  1  0.791609  0.275709  0.493211  1
  Li  Li8157  1  0.724291  0.208391  0.493211  1
  Li  Li8158  1  0.208391  0.275709  0.506789  1
  Li  Li8159  1  0.791609  0.724291  0.506789  1
  Li  Li8160  1  0.429979  0.711774  0.086567  1
  Li  Li8161  1  0.711774  0.570021  0.913433  1
  Li  Li8162  1  0.570021  0.288226  0.086567  1
  Li  Li8163  1  0.288226  0.429979  0.913433  1
  Li  Li8164  1  0.429979  0.288226  0.913433  1
  Li  Li8165  1  0.288226  0.570021  0.086567  1
  Li  Li8166  1  0.570021  0.711774  0.913433  1
  Li  Li8167  1  0.711774  0.429979  0.086567  1
  Li  Li8168  1  0.086567  0.429979  0.711774  1
  Li  Li8169  1  0.429979  0.913433  0.288226  1
  Li  Li8170  1  0.913433  0.570021  0.711774  1
  Li  Li8171  1  0.570021  0.086567  0.288226  1
  Li  Li8172  1  0.086567  0.570021  0.288226  1
  Li  Li8173  1  0.570021  0.913433  0.711774  1
  Li  Li8174  1  0.913433  0.429979  0.288226  1
  Li  Li8175  1  0.429979  0.086567  0.711774  1
  Li  Li8176  1  0.711774  0.086567  0.429979  1
  Li  Li8177  1  0.711774  0.913433  0.570021  1
  Li  Li8178  1  0.913433  0.288226  0.429979  1
  Li  Li8179  1  0.288226  0.086567  0.570021  1
  Li  Li8180  1  0.086567  0.711774  0.429979  1
  Li  Li8181  1  0.288226  0.913433  0.429979  1
  Li  Li8182  1  0.913433  0.711774  0.570021  1
  Li  Li8183  1  0.086567  0.288226  0.570021  1
  Li  Li8184  1  0.429979  0.211774  0.586567  1
  Li  Li8185  1  0.711774  0.070021  0.413433  1
  Li  Li8186  1  0.570021  0.788226  0.586567  1
  Li  Li8187  1  0.288226  0.929979  0.413433  1
  Li  Li8188  1  0.429979  0.788226  0.413433  1
  Li  Li8189  1  0.288226  0.070021  0.586567  1
  Li  Li8190  1  0.570021  0.211774  0.413433  1
  Li  Li8191  1  0.711774  0.929979  0.586567  1
  Li  Li8192  1  0.086567  0.929979  0.211774  1
  Li  Li8193  1  0.429979  0.413433  0.788226  1
  Li  Li8194  1  0.913433  0.070021  0.211774  1
  Li  Li8195  1  0.570021  0.586567  0.788226  1
  Li  Li8196  1  0.086567  0.070021  0.788226  1
  Li  Li8197  1  0.570021  0.413433  0.211774  1
  Li  Li8198  1  0.913433  0.929979  0.788226  1
  Li  Li8199  1  0.429979  0.586567  0.211774  1
  Li  Li8200  1  0.711774  0.586567  0.929979  1
  Li  Li8201  1  0.711774  0.413433  0.070021  1
  Li  Li8202  1  0.913433  0.788226  0.929979  1
  Li  Li8203  1  0.288226  0.586567  0.070021  1
  Li  Li8204  1  0.086567  0.211774  0.929979  1
  Li  Li8205  1  0.288226  0.413433  0.929979  1
  Li  Li8206  1  0.913433  0.211774  0.070021  1
  Li  Li8207  1  0.086567  0.788226  0.070021  1
  Li  Li8208  1  0.929979  0.711774  0.586567  1
  Li  Li8209  1  0.211774  0.570021  0.413433  1
  Li  Li8210  1  0.070021  0.288226  0.586567  1
  Li  Li8211  1  0.788226  0.429979  0.413433  1
  Li  Li8212  1  0.929979  0.288226  0.413433  1
  Li  Li8213  1  0.788226  0.570021  0.586567  1
  Li  Li8214  1  0.070021  0.711774  0.413433  1
  Li  Li8215  1  0.211774  0.429979  0.586567  1
  Li  Li8216  1  0.586567  0.429979  0.211774  1
  Li  Li8217  1  0.929979  0.913433  0.788226  1
  Li  Li8218  1  0.413433  0.570021  0.211774  1
  Li  Li8219  1  0.070021  0.086567  0.788226  1
  Li  Li8220  1  0.586567  0.570021  0.788226  1
  Li  Li8221  1  0.070021  0.913433  0.211774  1
  Li  Li8222  1  0.413433  0.429979  0.788226  1
  Li  Li8223  1  0.929979  0.086567  0.211774  1
  Li  Li8224  1  0.211774  0.086567  0.929979  1
  Li  Li8225  1  0.211774  0.913433  0.070021  1
  Li  Li8226  1  0.413433  0.288226  0.929979  1
  Li  Li8227  1  0.788226  0.086567  0.070021  1
  Li  Li8228  1  0.586567  0.711774  0.929979  1
  Li  Li8229  1  0.788226  0.913433  0.929979  1
  Li  Li8230  1  0.413433  0.711774  0.070021  1
  Li  Li8231  1  0.586567  0.288226  0.070021  1
  Li  Li8232  1  0.929979  0.211774  0.086567  1
  Li  Li8233  1  0.211774  0.070021  0.913433  1
  Li  Li8234  1  0.070021  0.788226  0.086567  1
  Li  Li8235  1  0.788226  0.929979  0.913433  1
  Li  Li8236  1  0.929979  0.788226  0.913433  1
  Li  Li8237  1  0.788226  0.070021  0.086567  1
  Li  Li8238  1  0.070021  0.211774  0.913433  1
  Li  Li8239  1  0.211774  0.929979  0.086567  1
  Li  Li8240  1  0.586567  0.929979  0.711774  1
  Li  Li8241  1  0.929979  0.413433  0.288226  1
  Li  Li8242  1  0.413433  0.070021  0.711774  1
  Li  Li8243  1  0.070021  0.586567  0.288226  1
  Li  Li8244  1  0.586567  0.070021  0.288226  1
  Li  Li8245  1  0.070021  0.413433  0.711774  1
  Li  Li8246  1  0.413433  0.929979  0.288226  1
  Li  Li8247  1  0.929979  0.586567  0.711774  1
  Li  Li8248  1  0.211774  0.586567  0.429979  1
  Li  Li8249  1  0.211774  0.413433  0.570021  1
  Li  Li8250  1  0.413433  0.788226  0.429979  1
  Li  Li8251  1  0.788226  0.586567  0.570021  1
  Li  Li8252  1  0.586567  0.211774  0.429979  1
  Li  Li8253  1  0.788226  0.413433  0.429979  1
  Li  Li8254  1  0.413433  0.211774  0.570021  1
  Li  Li8255  1  0.586567  0.788226  0.570021  1
  Li  Li8256  1  0.219169  0.913897  0.080713  1
  Li  Li8257  1  0.913897  0.780831  0.919287  1
  Li  Li8258  1  0.780831  0.086103  0.080713  1
  Li  Li8259  1  0.086103  0.219169  0.919287  1
  Li  Li8260  1  0.219169  0.086103  0.919287  1
  Li  Li8261  1  0.086103  0.780831  0.080713  1
  Li  Li8262  1  0.780831  0.913897  0.919287  1
  Li  Li8263  1  0.913897  0.219169  0.080713  1
  Li  Li8264  1  0.080713  0.219169  0.913897  1
  Li  Li8265  1  0.219169  0.919287  0.086103  1
  Li  Li8266  1  0.919287  0.780831  0.913897  1
  Li  Li8267  1  0.780831  0.080713  0.086103  1
  Li  Li8268  1  0.080713  0.780831  0.086103  1
  Li  Li8269  1  0.780831  0.919287  0.913897  1
  Li  Li8270  1  0.919287  0.219169  0.086103  1
  Li  Li8271  1  0.219169  0.080713  0.913897  1
  Li  Li8272  1  0.913897  0.080713  0.219169  1
  Li  Li8273  1  0.913897  0.919287  0.780831  1
  Li  Li8274  1  0.919287  0.086103  0.219169  1
  Li  Li8275  1  0.086103  0.080713  0.780831  1
  Li  Li8276  1  0.080713  0.913897  0.219169  1
  Li  Li8277  1  0.086103  0.919287  0.219169  1
  Li  Li8278  1  0.919287  0.913897  0.780831  1
  Li  Li8279  1  0.080713  0.086103  0.780831  1
  Li  Li8280  1  0.219169  0.413897  0.580713  1
  Li  Li8281  1  0.913897  0.280831  0.419287  1
  Li  Li8282  1  0.780831  0.586103  0.580713  1
  Li  Li8283  1  0.086103  0.719169  0.419287  1
  Li  Li8284  1  0.219169  0.586103  0.419287  1
  Li  Li8285  1  0.086103  0.280831  0.580713  1
  Li  Li8286  1  0.780831  0.413897  0.419287  1
  Li  Li8287  1  0.913897  0.719169  0.580713  1
  Li  Li8288  1  0.080713  0.719169  0.413897  1
  Li  Li8289  1  0.219169  0.419287  0.586103  1
  Li  Li8290  1  0.919287  0.280831  0.413897  1
  Li  Li8291  1  0.780831  0.580713  0.586103  1
  Li  Li8292  1  0.080713  0.280831  0.586103  1
  Li  Li8293  1  0.780831  0.419287  0.413897  1
  Li  Li8294  1  0.919287  0.719169  0.586103  1
  Li  Li8295  1  0.219169  0.580713  0.413897  1
  Li  Li8296  1  0.913897  0.580713  0.719169  1
  Li  Li8297  1  0.913897  0.419287  0.280831  1
  Li  Li8298  1  0.919287  0.586103  0.719169  1
  Li  Li8299  1  0.086103  0.580713  0.280831  1
  Li  Li8300  1  0.080713  0.413897  0.719169  1
  Li  Li8301  1  0.086103  0.419287  0.719169  1
  Li  Li8302  1  0.919287  0.413897  0.280831  1
  Li  Li8303  1  0.080713  0.586103  0.280831  1
  Li  Li8304  1  0.719169  0.913897  0.580713  1
  Li  Li8305  1  0.413897  0.780831  0.419287  1
  Li  Li8306  1  0.280831  0.086103  0.580713  1
  Li  Li8307  1  0.586103  0.219169  0.419287  1
  Li  Li8308  1  0.719169  0.086103  0.419287  1
  Li  Li8309  1  0.586103  0.780831  0.580713  1
  Li  Li8310  1  0.280831  0.913897  0.419287  1
  Li  Li8311  1  0.413897  0.219169  0.580713  1
  Li  Li8312  1  0.580713  0.219169  0.413897  1
  Li  Li8313  1  0.719169  0.919287  0.586103  1
  Li  Li8314  1  0.419287  0.780831  0.413897  1
  Li  Li8315  1  0.280831  0.080713  0.586103  1
  Li  Li8316  1  0.580713  0.780831  0.586103  1
  Li  Li8317  1  0.280831  0.919287  0.413897  1
  Li  Li8318  1  0.419287  0.219169  0.586103  1
  Li  Li8319  1  0.719169  0.080713  0.413897  1
  Li  Li8320  1  0.413897  0.080713  0.719169  1
  Li  Li8321  1  0.413897  0.919287  0.280831  1
  Li  Li8322  1  0.419287  0.086103  0.719169  1
  Li  Li8323  1  0.586103  0.080713  0.280831  1
  Li  Li8324  1  0.580713  0.913897  0.719169  1
  Li  Li8325  1  0.586103  0.919287  0.719169  1
  Li  Li8326  1  0.419287  0.913897  0.280831  1
  Li  Li8327  1  0.580713  0.086103  0.280831  1
  Li  Li8328  1  0.719169  0.413897  0.080713  1
  Li  Li8329  1  0.413897  0.280831  0.919287  1
  Li  Li8330  1  0.280831  0.586103  0.080713  1
  Li  Li8331  1  0.586103  0.719169  0.919287  1
  Li  Li8332  1  0.719169  0.586103  0.919287  1
  Li  Li8333  1  0.586103  0.280831  0.080713  1
  Li  Li8334  1  0.280831  0.413897  0.919287  1
  Li  Li8335  1  0.413897  0.719169  0.080713  1
  Li  Li8336  1  0.580713  0.719169  0.913897  1
  Li  Li8337  1  0.719169  0.419287  0.086103  1
  Li  Li8338  1  0.419287  0.280831  0.913897  1
  Li  Li8339  1  0.280831  0.580713  0.086103  1
  Li  Li8340  1  0.580713  0.280831  0.086103  1
  Li  Li8341  1  0.280831  0.419287  0.913897  1
  Li  Li8342  1  0.419287  0.719169  0.086103  1
  Li  Li8343  1  0.719169  0.580713  0.913897  1
  Li  Li8344  1  0.413897  0.580713  0.219169  1
  Li  Li8345  1  0.413897  0.419287  0.780831  1
  Li  Li8346  1  0.419287  0.586103  0.219169  1
  Li  Li8347  1  0.586103  0.580713  0.780831  1
  Li  Li8348  1  0.580713  0.413897  0.219169  1
  Li  Li8349  1  0.586103  0.419287  0.219169  1
  Li  Li8350  1  0.419287  0.413897  0.780831  1
  Li  Li8351  1  0.580713  0.586103  0.780831  1
  Li  Li8352  1  0.287526  0.664224  0.029153  1
  Li  Li8353  1  0.664224  0.712474  0.970847  1
  Li  Li8354  1  0.712474  0.335776  0.029153  1
  Li  Li8355  1  0.335776  0.287526  0.970847  1
  Li  Li8356  1  0.287526  0.335776  0.970847  1
  Li  Li8357  1  0.335776  0.712474  0.029153  1
  Li  Li8358  1  0.712474  0.664224  0.970847  1
  Li  Li8359  1  0.664224  0.287526  0.029153  1
  Li  Li8360  1  0.029153  0.287526  0.664224  1
  Li  Li8361  1  0.287526  0.970847  0.335776  1
  Li  Li8362  1  0.970847  0.712474  0.664224  1
  Li  Li8363  1  0.712474  0.029153  0.335776  1
  Li  Li8364  1  0.029153  0.712474  0.335776  1
  Li  Li8365  1  0.712474  0.970847  0.664224  1
  Li  Li8366  1  0.970847  0.287526  0.335776  1
  Li  Li8367  1  0.287526  0.029153  0.664224  1
  Li  Li8368  1  0.664224  0.029153  0.287526  1
  Li  Li8369  1  0.664224  0.970847  0.712474  1
  Li  Li8370  1  0.970847  0.335776  0.287526  1
  Li  Li8371  1  0.335776  0.029153  0.712474  1
  Li  Li8372  1  0.029153  0.664224  0.287526  1
  Li  Li8373  1  0.335776  0.970847  0.287526  1
  Li  Li8374  1  0.970847  0.664224  0.712474  1
  Li  Li8375  1  0.029153  0.335776  0.712474  1
  Li  Li8376  1  0.287526  0.164224  0.529153  1
  Li  Li8377  1  0.664224  0.212474  0.470847  1
  Li  Li8378  1  0.712474  0.835776  0.529153  1
  Li  Li8379  1  0.335776  0.787526  0.470847  1
  Li  Li8380  1  0.287526  0.835776  0.470847  1
  Li  Li8381  1  0.335776  0.212474  0.529153  1
  Li  Li8382  1  0.712474  0.164224  0.470847  1
  Li  Li8383  1  0.664224  0.787526  0.529153  1
  Li  Li8384  1  0.029153  0.787526  0.164224  1
  Li  Li8385  1  0.287526  0.470847  0.835776  1
  Li  Li8386  1  0.970847  0.212474  0.164224  1
  Li  Li8387  1  0.712474  0.529153  0.835776  1
  Li  Li8388  1  0.029153  0.212474  0.835776  1
  Li  Li8389  1  0.712474  0.470847  0.164224  1
  Li  Li8390  1  0.970847  0.787526  0.835776  1
  Li  Li8391  1  0.287526  0.529153  0.164224  1
  Li  Li8392  1  0.664224  0.529153  0.787526  1
  Li  Li8393  1  0.664224  0.470847  0.212474  1
  Li  Li8394  1  0.970847  0.835776  0.787526  1
  Li  Li8395  1  0.335776  0.529153  0.212474  1
  Li  Li8396  1  0.029153  0.164224  0.787526  1
  Li  Li8397  1  0.335776  0.470847  0.787526  1
  Li  Li8398  1  0.970847  0.164224  0.212474  1
  Li  Li8399  1  0.029153  0.835776  0.212474  1
  Li  Li8400  1  0.787526  0.664224  0.529153  1
  Li  Li8401  1  0.164224  0.712474  0.470847  1
  Li  Li8402  1  0.212474  0.335776  0.529153  1
  Li  Li8403  1  0.835776  0.287526  0.470847  1
  Li  Li8404  1  0.787526  0.335776  0.470847  1
  Li  Li8405  1  0.835776  0.712474  0.529153  1
  Li  Li8406  1  0.212474  0.664224  0.470847  1
  Li  Li8407  1  0.164224  0.287526  0.529153  1
  Li  Li8408  1  0.529153  0.287526  0.164224  1
  Li  Li8409  1  0.787526  0.970847  0.835776  1
  Li  Li8410  1  0.470847  0.712474  0.164224  1
  Li  Li8411  1  0.212474  0.029153  0.835776  1
  Li  Li8412  1  0.529153  0.712474  0.835776  1
  Li  Li8413  1  0.212474  0.970847  0.164224  1
  Li  Li8414  1  0.470847  0.287526  0.835776  1
  Li  Li8415  1  0.787526  0.029153  0.164224  1
  Li  Li8416  1  0.164224  0.029153  0.787526  1
  Li  Li8417  1  0.164224  0.970847  0.212474  1
  Li  Li8418  1  0.470847  0.335776  0.787526  1
  Li  Li8419  1  0.835776  0.029153  0.212474  1
  Li  Li8420  1  0.529153  0.664224  0.787526  1
  Li  Li8421  1  0.835776  0.970847  0.787526  1
  Li  Li8422  1  0.470847  0.664224  0.212474  1
  Li  Li8423  1  0.529153  0.335776  0.212474  1
  Li  Li8424  1  0.787526  0.164224  0.029153  1
  Li  Li8425  1  0.164224  0.212474  0.970847  1
  Li  Li8426  1  0.212474  0.835776  0.029153  1
  Li  Li8427  1  0.835776  0.787526  0.970847  1
  Li  Li8428  1  0.787526  0.835776  0.970847  1
  Li  Li8429  1  0.835776  0.212474  0.029153  1
  Li  Li8430  1  0.212474  0.164224  0.970847  1
  Li  Li8431  1  0.164224  0.787526  0.029153  1
  Li  Li8432  1  0.529153  0.787526  0.664224  1
  Li  Li8433  1  0.787526  0.470847  0.335776  1
  Li  Li8434  1  0.470847  0.212474  0.664224  1
  Li  Li8435  1  0.212474  0.529153  0.335776  1
  Li  Li8436  1  0.529153  0.212474  0.335776  1
  Li  Li8437  1  0.212474  0.470847  0.664224  1
  Li  Li8438  1  0.470847  0.787526  0.335776  1
  Li  Li8439  1  0.787526  0.529153  0.664224  1
  Li  Li8440  1  0.164224  0.529153  0.287526  1
  Li  Li8441  1  0.164224  0.470847  0.712474  1
  Li  Li8442  1  0.470847  0.835776  0.287526  1
  Li  Li8443  1  0.835776  0.529153  0.712474  1
  Li  Li8444  1  0.529153  0.164224  0.287526  1
  Li  Li8445  1  0.835776  0.470847  0.287526  1
  Li  Li8446  1  0.470847  0.164224  0.712474  1
  Li  Li8447  1  0.529153  0.835776  0.712474  1
  Li  Li8448  1  0.209961  0.522654  0.309302  1
  Li  Li8449  1  0.522654  0.790039  0.690698  1
  Li  Li8450  1  0.790039  0.477346  0.309302  1
  Li  Li8451  1  0.477346  0.209961  0.690698  1
  Li  Li8452  1  0.209961  0.477346  0.690698  1
  Li  Li8453  1  0.477346  0.790039  0.309302  1
  Li  Li8454  1  0.790039  0.522654  0.690698  1
  Li  Li8455  1  0.522654  0.209961  0.309302  1
  Li  Li8456  1  0.309302  0.209961  0.522654  1
  Li  Li8457  1  0.209961  0.690698  0.477346  1
  Li  Li8458  1  0.690698  0.790039  0.522654  1
  Li  Li8459  1  0.790039  0.309302  0.477346  1
  Li  Li8460  1  0.309302  0.790039  0.477346  1
  Li  Li8461  1  0.790039  0.690698  0.522654  1
  Li  Li8462  1  0.690698  0.209961  0.477346  1
  Li  Li8463  1  0.209961  0.309302  0.522654  1
  Li  Li8464  1  0.522654  0.309302  0.209961  1
  Li  Li8465  1  0.522654  0.690698  0.790039  1
  Li  Li8466  1  0.690698  0.477346  0.209961  1
  Li  Li8467  1  0.477346  0.309302  0.790039  1
  Li  Li8468  1  0.309302  0.522654  0.209961  1
  Li  Li8469  1  0.477346  0.690698  0.209961  1
  Li  Li8470  1  0.690698  0.522654  0.790039  1
  Li  Li8471  1  0.309302  0.477346  0.790039  1
  Li  Li8472  1  0.209961  0.022654  0.809302  1
  Li  Li8473  1  0.522654  0.290039  0.190698  1
  Li  Li8474  1  0.790039  0.977346  0.809302  1
  Li  Li8475  1  0.477346  0.709961  0.190698  1
  Li  Li8476  1  0.209961  0.977346  0.190698  1
  Li  Li8477  1  0.477346  0.290039  0.809302  1
  Li  Li8478  1  0.790039  0.022654  0.190698  1
  Li  Li8479  1  0.522654  0.709961  0.809302  1
  Li  Li8480  1  0.309302  0.709961  0.022654  1
  Li  Li8481  1  0.209961  0.190698  0.977346  1
  Li  Li8482  1  0.690698  0.290039  0.022654  1
  Li  Li8483  1  0.790039  0.809302  0.977346  1
  Li  Li8484  1  0.309302  0.290039  0.977346  1
  Li  Li8485  1  0.790039  0.190698  0.022654  1
  Li  Li8486  1  0.690698  0.709961  0.977346  1
  Li  Li8487  1  0.209961  0.809302  0.022654  1
  Li  Li8488  1  0.522654  0.809302  0.709961  1
  Li  Li8489  1  0.522654  0.190698  0.290039  1
  Li  Li8490  1  0.690698  0.977346  0.709961  1
  Li  Li8491  1  0.477346  0.809302  0.290039  1
  Li  Li8492  1  0.309302  0.022654  0.709961  1
  Li  Li8493  1  0.477346  0.190698  0.709961  1
  Li  Li8494  1  0.690698  0.022654  0.290039  1
  Li  Li8495  1  0.309302  0.977346  0.290039  1
  Li  Li8496  1  0.709961  0.522654  0.809302  1
  Li  Li8497  1  0.022654  0.790039  0.190698  1
  Li  Li8498  1  0.290039  0.477346  0.809302  1
  Li  Li8499  1  0.977346  0.209961  0.190698  1
  Li  Li8500  1  0.709961  0.477346  0.190698  1
  Li  Li8501  1  0.977346  0.790039  0.809302  1
  Li  Li8502  1  0.290039  0.522654  0.190698  1
  Li  Li8503  1  0.022654  0.209961  0.809302  1
  Li  Li8504  1  0.809302  0.209961  0.022654  1
  Li  Li8505  1  0.709961  0.690698  0.977346  1
  Li  Li8506  1  0.190698  0.790039  0.022654  1
  Li  Li8507  1  0.290039  0.309302  0.977346  1
  Li  Li8508  1  0.809302  0.790039  0.977346  1
  Li  Li8509  1  0.290039  0.690698  0.022654  1
  Li  Li8510  1  0.190698  0.209961  0.977346  1
  Li  Li8511  1  0.709961  0.309302  0.022654  1
  Li  Li8512  1  0.022654  0.309302  0.709961  1
  Li  Li8513  1  0.022654  0.690698  0.290039  1
  Li  Li8514  1  0.190698  0.477346  0.709961  1
  Li  Li8515  1  0.977346  0.309302  0.290039  1
  Li  Li8516  1  0.809302  0.522654  0.709961  1
  Li  Li8517  1  0.977346  0.690698  0.709961  1
  Li  Li8518  1  0.190698  0.522654  0.290039  1
  Li  Li8519  1  0.809302  0.477346  0.290039  1
  Li  Li8520  1  0.709961  0.022654  0.309302  1
  Li  Li8521  1  0.022654  0.290039  0.690698  1
  Li  Li8522  1  0.290039  0.977346  0.309302  1
  Li  Li8523  1  0.977346  0.709961  0.690698  1
  Li  Li8524  1  0.709961  0.977346  0.690698  1
  Li  Li8525  1  0.977346  0.290039  0.309302  1
  Li  Li8526  1  0.290039  0.022654  0.690698  1
  Li  Li8527  1  0.022654  0.709961  0.309302  1
  Li  Li8528  1  0.809302  0.709961  0.522654  1
  Li  Li8529  1  0.709961  0.190698  0.477346  1
  Li  Li8530  1  0.190698  0.290039  0.522654  1
  Li  Li8531  1  0.290039  0.809302  0.477346  1
  Li  Li8532  1  0.809302  0.290039  0.477346  1
  Li  Li8533  1  0.290039  0.190698  0.522654  1
  Li  Li8534  1  0.190698  0.709961  0.477346  1
  Li  Li8535  1  0.709961  0.809302  0.522654  1
  Li  Li8536  1  0.022654  0.809302  0.209961  1
  Li  Li8537  1  0.022654  0.190698  0.790039  1
  Li  Li8538  1  0.190698  0.977346  0.209961  1
  Li  Li8539  1  0.977346  0.809302  0.790039  1
  Li  Li8540  1  0.809302  0.022654  0.209961  1
  Li  Li8541  1  0.977346  0.190698  0.209961  1
  Li  Li8542  1  0.190698  0.022654  0.790039  1
  Li  Li8543  1  0.809302  0.977346  0.790039  1
  Li  Li8544  1  0.209183  0.684461  0.467172  1
  Li  Li8545  1  0.684461  0.790817  0.532828  1
  Li  Li8546  1  0.790817  0.315539  0.467172  1
  Li  Li8547  1  0.315539  0.209183  0.532828  1
  Li  Li8548  1  0.209183  0.315539  0.532828  1
  Li  Li8549  1  0.315539  0.790817  0.467172  1
  Li  Li8550  1  0.790817  0.684461  0.532828  1
  Li  Li8551  1  0.684461  0.209183  0.467172  1
  Li  Li8552  1  0.467172  0.209183  0.684461  1
  Li  Li8553  1  0.209183  0.532828  0.315539  1
  Li  Li8554  1  0.532828  0.790817  0.684461  1
  Li  Li8555  1  0.790817  0.467172  0.315539  1
  Li  Li8556  1  0.467172  0.790817  0.315539  1
  Li  Li8557  1  0.790817  0.532828  0.684461  1
  Li  Li8558  1  0.532828  0.209183  0.315539  1
  Li  Li8559  1  0.209183  0.467172  0.684461  1
  Li  Li8560  1  0.684461  0.467172  0.209183  1
  Li  Li8561  1  0.684461  0.532828  0.790817  1
  Li  Li8562  1  0.532828  0.315539  0.209183  1
  Li  Li8563  1  0.315539  0.467172  0.790817  1
  Li  Li8564  1  0.467172  0.684461  0.209183  1
  Li  Li8565  1  0.315539  0.532828  0.209183  1
  Li  Li8566  1  0.532828  0.684461  0.790817  1
  Li  Li8567  1  0.467172  0.315539  0.790817  1
  Li  Li8568  1  0.209183  0.184461  0.967172  1
  Li  Li8569  1  0.684461  0.290817  0.032828  1
  Li  Li8570  1  0.790817  0.815539  0.967172  1
  Li  Li8571  1  0.315539  0.709183  0.032828  1
  Li  Li8572  1  0.209183  0.815539  0.032828  1
  Li  Li8573  1  0.315539  0.290817  0.967172  1
  Li  Li8574  1  0.790817  0.184461  0.032828  1
  Li  Li8575  1  0.684461  0.709183  0.967172  1
  Li  Li8576  1  0.467172  0.709183  0.184461  1
  Li  Li8577  1  0.209183  0.032828  0.815539  1
  Li  Li8578  1  0.532828  0.290817  0.184461  1
  Li  Li8579  1  0.790817  0.967172  0.815539  1
  Li  Li8580  1  0.467172  0.290817  0.815539  1
  Li  Li8581  1  0.790817  0.032828  0.184461  1
  Li  Li8582  1  0.532828  0.709183  0.815539  1
  Li  Li8583  1  0.209183  0.967172  0.184461  1
  Li  Li8584  1  0.684461  0.967172  0.709183  1
  Li  Li8585  1  0.684461  0.032828  0.290817  1
  Li  Li8586  1  0.532828  0.815539  0.709183  1
  Li  Li8587  1  0.315539  0.967172  0.290817  1
  Li  Li8588  1  0.467172  0.184461  0.709183  1
  Li  Li8589  1  0.315539  0.032828  0.709183  1
  Li  Li8590  1  0.532828  0.184461  0.290817  1
  Li  Li8591  1  0.467172  0.815539  0.290817  1
  Li  Li8592  1  0.709183  0.684461  0.967172  1
  Li  Li8593  1  0.184461  0.790817  0.032828  1
  Li  Li8594  1  0.290817  0.315539  0.967172  1
  Li  Li8595  1  0.815539  0.209183  0.032828  1
  Li  Li8596  1  0.709183  0.315539  0.032828  1
  Li  Li8597  1  0.815539  0.790817  0.967172  1
  Li  Li8598  1  0.290817  0.684461  0.032828  1
  Li  Li8599  1  0.184461  0.209183  0.967172  1
  Li  Li8600  1  0.967172  0.209183  0.184461  1
  Li  Li8601  1  0.709183  0.532828  0.815539  1
  Li  Li8602  1  0.032828  0.790817  0.184461  1
  Li  Li8603  1  0.290817  0.467172  0.815539  1
  Li  Li8604  1  0.967172  0.790817  0.815539  1
  Li  Li8605  1  0.290817  0.532828  0.184461  1
  Li  Li8606  1  0.032828  0.209183  0.815539  1
  Li  Li8607  1  0.709183  0.467172  0.184461  1
  Li  Li8608  1  0.184461  0.467172  0.709183  1
  Li  Li8609  1  0.184461  0.532828  0.290817  1
  Li  Li8610  1  0.032828  0.315539  0.709183  1
  Li  Li8611  1  0.815539  0.467172  0.290817  1
  Li  Li8612  1  0.967172  0.684461  0.709183  1
  Li  Li8613  1  0.815539  0.532828  0.709183  1
  Li  Li8614  1  0.032828  0.684461  0.290817  1
  Li  Li8615  1  0.967172  0.315539  0.290817  1
  Li  Li8616  1  0.709183  0.184461  0.467172  1
  Li  Li8617  1  0.184461  0.290817  0.532828  1
  Li  Li8618  1  0.290817  0.815539  0.467172  1
  Li  Li8619  1  0.815539  0.709183  0.532828  1
  Li  Li8620  1  0.709183  0.815539  0.532828  1
  Li  Li8621  1  0.815539  0.290817  0.467172  1
  Li  Li8622  1  0.290817  0.184461  0.532828  1
  Li  Li8623  1  0.184461  0.709183  0.467172  1
  Li  Li8624  1  0.967172  0.709183  0.684461  1
  Li  Li8625  1  0.709183  0.032828  0.315539  1
  Li  Li8626  1  0.032828  0.290817  0.684461  1
  Li  Li8627  1  0.290817  0.967172  0.315539  1
  Li  Li8628  1  0.967172  0.290817  0.315539  1
  Li  Li8629  1  0.290817  0.032828  0.684461  1
  Li  Li8630  1  0.032828  0.709183  0.315539  1
  Li  Li8631  1  0.709183  0.967172  0.684461  1
  Li  Li8632  1  0.184461  0.967172  0.209183  1
  Li  Li8633  1  0.184461  0.032828  0.790817  1
  Li  Li8634  1  0.032828  0.815539  0.209183  1
  Li  Li8635  1  0.815539  0.967172  0.790817  1
  Li  Li8636  1  0.967172  0.184461  0.209183  1
  Li  Li8637  1  0.815539  0.032828  0.209183  1
  Li  Li8638  1  0.032828  0.184461  0.790817  1
  Li  Li8639  1  0.967172  0.815539  0.790817  1
  Li  Li8640  1  0.297662  0.787773  0.456141  1
  Li  Li8641  1  0.787773  0.702338  0.543859  1
  Li  Li8642  1  0.702338  0.212227  0.456141  1
  Li  Li8643  1  0.212227  0.297662  0.543859  1
  Li  Li8644  1  0.297662  0.212227  0.543859  1
  Li  Li8645  1  0.212227  0.702338  0.456141  1
  Li  Li8646  1  0.702338  0.787773  0.543859  1
  Li  Li8647  1  0.787773  0.297662  0.456141  1
  Li  Li8648  1  0.456141  0.297662  0.787773  1
  Li  Li8649  1  0.297662  0.543859  0.212227  1
  Li  Li8650  1  0.543859  0.702338  0.787773  1
  Li  Li8651  1  0.702338  0.456141  0.212227  1
  Li  Li8652  1  0.456141  0.702338  0.212227  1
  Li  Li8653  1  0.702338  0.543859  0.787773  1
  Li  Li8654  1  0.543859  0.297662  0.212227  1
  Li  Li8655  1  0.297662  0.456141  0.787773  1
  Li  Li8656  1  0.787773  0.456141  0.297662  1
  Li  Li8657  1  0.787773  0.543859  0.702338  1
  Li  Li8658  1  0.543859  0.212227  0.297662  1
  Li  Li8659  1  0.212227  0.456141  0.702338  1
  Li  Li8660  1  0.456141  0.787773  0.297662  1
  Li  Li8661  1  0.212227  0.543859  0.297662  1
  Li  Li8662  1  0.543859  0.787773  0.702338  1
  Li  Li8663  1  0.456141  0.212227  0.702338  1
  Li  Li8664  1  0.297662  0.287773  0.956141  1
  Li  Li8665  1  0.787773  0.202338  0.043859  1
  Li  Li8666  1  0.702338  0.712227  0.956141  1
  Li  Li8667  1  0.212227  0.797662  0.043859  1
  Li  Li8668  1  0.297662  0.712227  0.043859  1
  Li  Li8669  1  0.212227  0.202338  0.956141  1
  Li  Li8670  1  0.702338  0.287773  0.043859  1
  Li  Li8671  1  0.787773  0.797662  0.956141  1
  Li  Li8672  1  0.456141  0.797662  0.287773  1
  Li  Li8673  1  0.297662  0.043859  0.712227  1
  Li  Li8674  1  0.543859  0.202338  0.287773  1
  Li  Li8675  1  0.702338  0.956141  0.712227  1
  Li  Li8676  1  0.456141  0.202338  0.712227  1
  Li  Li8677  1  0.702338  0.043859  0.287773  1
  Li  Li8678  1  0.543859  0.797662  0.712227  1
  Li  Li8679  1  0.297662  0.956141  0.287773  1
  Li  Li8680  1  0.787773  0.956141  0.797662  1
  Li  Li8681  1  0.787773  0.043859  0.202338  1
  Li  Li8682  1  0.543859  0.712227  0.797662  1
  Li  Li8683  1  0.212227  0.956141  0.202338  1
  Li  Li8684  1  0.456141  0.287773  0.797662  1
  Li  Li8685  1  0.212227  0.043859  0.797662  1
  Li  Li8686  1  0.543859  0.287773  0.202338  1
  Li  Li8687  1  0.456141  0.712227  0.202338  1
  Li  Li8688  1  0.797662  0.787773  0.956141  1
  Li  Li8689  1  0.287773  0.702338  0.043859  1
  Li  Li8690  1  0.202338  0.212227  0.956141  1
  Li  Li8691  1  0.712227  0.297662  0.043859  1
  Li  Li8692  1  0.797662  0.212227  0.043859  1
  Li  Li8693  1  0.712227  0.702338  0.956141  1
  Li  Li8694  1  0.202338  0.787773  0.043859  1
  Li  Li8695  1  0.287773  0.297662  0.956141  1
  Li  Li8696  1  0.956141  0.297662  0.287773  1
  Li  Li8697  1  0.797662  0.543859  0.712227  1
  Li  Li8698  1  0.043859  0.702338  0.287773  1
  Li  Li8699  1  0.202338  0.456141  0.712227  1
  Li  Li8700  1  0.956141  0.702338  0.712227  1
  Li  Li8701  1  0.202338  0.543859  0.287773  1
  Li  Li8702  1  0.043859  0.297662  0.712227  1
  Li  Li8703  1  0.797662  0.456141  0.287773  1
  Li  Li8704  1  0.287773  0.456141  0.797662  1
  Li  Li8705  1  0.287773  0.543859  0.202338  1
  Li  Li8706  1  0.043859  0.212227  0.797662  1
  Li  Li8707  1  0.712227  0.456141  0.202338  1
  Li  Li8708  1  0.956141  0.787773  0.797662  1
  Li  Li8709  1  0.712227  0.543859  0.797662  1
  Li  Li8710  1  0.043859  0.787773  0.202338  1
  Li  Li8711  1  0.956141  0.212227  0.202338  1
  Li  Li8712  1  0.797662  0.287773  0.456141  1
  Li  Li8713  1  0.287773  0.202338  0.543859  1
  Li  Li8714  1  0.202338  0.712227  0.456141  1
  Li  Li8715  1  0.712227  0.797662  0.543859  1
  Li  Li8716  1  0.797662  0.712227  0.543859  1
  Li  Li8717  1  0.712227  0.202338  0.456141  1
  Li  Li8718  1  0.202338  0.287773  0.543859  1
  Li  Li8719  1  0.287773  0.797662  0.456141  1
  Li  Li8720  1  0.956141  0.797662  0.787773  1
  Li  Li8721  1  0.797662  0.043859  0.212227  1
  Li  Li8722  1  0.043859  0.202338  0.787773  1
  Li  Li8723  1  0.202338  0.956141  0.212227  1
  Li  Li8724  1  0.956141  0.202338  0.212227  1
  Li  Li8725  1  0.202338  0.043859  0.787773  1
  Li  Li8726  1  0.043859  0.797662  0.212227  1
  Li  Li8727  1  0.797662  0.956141  0.787773  1
  Li  Li8728  1  0.287773  0.956141  0.297662  1
  Li  Li8729  1  0.287773  0.043859  0.702338  1
  Li  Li8730  1  0.043859  0.712227  0.297662  1
  Li  Li8731  1  0.712227  0.956141  0.702338  1
  Li  Li8732  1  0.956141  0.287773  0.297662  1
  Li  Li8733  1  0.712227  0.043859  0.297662  1
  Li  Li8734  1  0.043859  0.287773  0.702338  1
  Li  Li8735  1  0.956141  0.712227  0.702338  1
  Li  Li8736  1  0.224451  0.514544  0.266540  1
  Li  Li8737  1  0.514544  0.775549  0.733460  1
  Li  Li8738  1  0.775549  0.485456  0.266540  1
  Li  Li8739  1  0.485456  0.224451  0.733460  1
  Li  Li8740  1  0.224451  0.485456  0.733460  1
  Li  Li8741  1  0.485456  0.775549  0.266540  1
  Li  Li8742  1  0.775549  0.514544  0.733460  1
  Li  Li8743  1  0.514544  0.224451  0.266540  1
  Li  Li8744  1  0.266540  0.224451  0.514544  1
  Li  Li8745  1  0.224451  0.733460  0.485456  1
  Li  Li8746  1  0.733460  0.775549  0.514544  1
  Li  Li8747  1  0.775549  0.266540  0.485456  1
  Li  Li8748  1  0.266540  0.775549  0.485456  1
  Li  Li8749  1  0.775549  0.733460  0.514544  1
  Li  Li8750  1  0.733460  0.224451  0.485456  1
  Li  Li8751  1  0.224451  0.266540  0.514544  1
  Li  Li8752  1  0.514544  0.266540  0.224451  1
  Li  Li8753  1  0.514544  0.733460  0.775549  1
  Li  Li8754  1  0.733460  0.485456  0.224451  1
  Li  Li8755  1  0.485456  0.266540  0.775549  1
  Li  Li8756  1  0.266540  0.514544  0.224451  1
  Li  Li8757  1  0.485456  0.733460  0.224451  1
  Li  Li8758  1  0.733460  0.514544  0.775549  1
  Li  Li8759  1  0.266540  0.485456  0.775549  1
  Li  Li8760  1  0.224451  0.014544  0.766540  1
  Li  Li8761  1  0.514544  0.275549  0.233460  1
  Li  Li8762  1  0.775549  0.985456  0.766540  1
  Li  Li8763  1  0.485456  0.724451  0.233460  1
  Li  Li8764  1  0.224451  0.985456  0.233460  1
  Li  Li8765  1  0.485456  0.275549  0.766540  1
  Li  Li8766  1  0.775549  0.014544  0.233460  1
  Li  Li8767  1  0.514544  0.724451  0.766540  1
  Li  Li8768  1  0.266540  0.724451  0.014544  1
  Li  Li8769  1  0.224451  0.233460  0.985456  1
  Li  Li8770  1  0.733460  0.275549  0.014544  1
  Li  Li8771  1  0.775549  0.766540  0.985456  1
  Li  Li8772  1  0.266540  0.275549  0.985456  1
  Li  Li8773  1  0.775549  0.233460  0.014544  1
  Li  Li8774  1  0.733460  0.724451  0.985456  1
  Li  Li8775  1  0.224451  0.766540  0.014544  1
  Li  Li8776  1  0.514544  0.766540  0.724451  1
  Li  Li8777  1  0.514544  0.233460  0.275549  1
  Li  Li8778  1  0.733460  0.985456  0.724451  1
  Li  Li8779  1  0.485456  0.766540  0.275549  1
  Li  Li8780  1  0.266540  0.014544  0.724451  1
  Li  Li8781  1  0.485456  0.233460  0.724451  1
  Li  Li8782  1  0.733460  0.014544  0.275549  1
  Li  Li8783  1  0.266540  0.985456  0.275549  1
  Li  Li8784  1  0.724451  0.514544  0.766540  1
  Li  Li8785  1  0.014544  0.775549  0.233460  1
  Li  Li8786  1  0.275549  0.485456  0.766540  1
  Li  Li8787  1  0.985456  0.224451  0.233460  1
  Li  Li8788  1  0.724451  0.485456  0.233460  1
  Li  Li8789  1  0.985456  0.775549  0.766540  1
  Li  Li8790  1  0.275549  0.514544  0.233460  1
  Li  Li8791  1  0.014544  0.224451  0.766540  1
  Li  Li8792  1  0.766540  0.224451  0.014544  1
  Li  Li8793  1  0.724451  0.733460  0.985456  1
  Li  Li8794  1  0.233460  0.775549  0.014544  1
  Li  Li8795  1  0.275549  0.266540  0.985456  1
  Li  Li8796  1  0.766540  0.775549  0.985456  1
  Li  Li8797  1  0.275549  0.733460  0.014544  1
  Li  Li8798  1  0.233460  0.224451  0.985456  1
  Li  Li8799  1  0.724451  0.266540  0.014544  1
  Li  Li8800  1  0.014544  0.266540  0.724451  1
  Li  Li8801  1  0.014544  0.733460  0.275549  1
  Li  Li8802  1  0.233460  0.485456  0.724451  1
  Li  Li8803  1  0.985456  0.266540  0.275549  1
  Li  Li8804  1  0.766540  0.514544  0.724451  1
  Li  Li8805  1  0.985456  0.733460  0.724451  1
  Li  Li8806  1  0.233460  0.514544  0.275549  1
  Li  Li8807  1  0.766540  0.485456  0.275549  1
  Li  Li8808  1  0.724451  0.014544  0.266540  1
  Li  Li8809  1  0.014544  0.275549  0.733460  1
  Li  Li8810  1  0.275549  0.985456  0.266540  1
  Li  Li8811  1  0.985456  0.724451  0.733460  1
  Li  Li8812  1  0.724451  0.985456  0.733460  1
  Li  Li8813  1  0.985456  0.275549  0.266540  1
  Li  Li8814  1  0.275549  0.014544  0.733460  1
  Li  Li8815  1  0.014544  0.724451  0.266540  1
  Li  Li8816  1  0.766540  0.724451  0.514544  1
  Li  Li8817  1  0.724451  0.233460  0.485456  1
  Li  Li8818  1  0.233460  0.275549  0.514544  1
  Li  Li8819  1  0.275549  0.766540  0.485456  1
  Li  Li8820  1  0.766540  0.275549  0.485456  1
  Li  Li8821  1  0.275549  0.233460  0.514544  1
  Li  Li8822  1  0.233460  0.724451  0.485456  1
  Li  Li8823  1  0.724451  0.766540  0.514544  1
  Li  Li8824  1  0.014544  0.766540  0.224451  1
  Li  Li8825  1  0.014544  0.233460  0.775549  1
  Li  Li8826  1  0.233460  0.985456  0.224451  1
  Li  Li8827  1  0.985456  0.766540  0.775549  1
  Li  Li8828  1  0.766540  0.014544  0.224451  1
  Li  Li8829  1  0.985456  0.233460  0.224451  1
  Li  Li8830  1  0.233460  0.014544  0.775549  1
  Li  Li8831  1  0.766540  0.985456  0.775549  1
  Li  Li8832  1  0.301054  0.778858  0.497929  1
  Li  Li8833  1  0.778858  0.698946  0.502071  1
  Li  Li8834  1  0.698946  0.221142  0.497929  1
  Li  Li8835  1  0.221142  0.301054  0.502071  1
  Li  Li8836  1  0.301054  0.221142  0.502071  1
  Li  Li8837  1  0.221142  0.698946  0.497929  1
  Li  Li8838  1  0.698946  0.778858  0.502071  1
  Li  Li8839  1  0.778858  0.301054  0.497929  1
  Li  Li8840  1  0.497929  0.301054  0.778858  1
  Li  Li8841  1  0.301054  0.502071  0.221142  1
  Li  Li8842  1  0.502071  0.698946  0.778858  1
  Li  Li8843  1  0.698946  0.497929  0.221142  1
  Li  Li8844  1  0.497929  0.698946  0.221142  1
  Li  Li8845  1  0.698946  0.502071  0.778858  1
  Li  Li8846  1  0.502071  0.301054  0.221142  1
  Li  Li8847  1  0.301054  0.497929  0.778858  1
  Li  Li8848  1  0.778858  0.497929  0.301054  1
  Li  Li8849  1  0.778858  0.502071  0.698946  1
  Li  Li8850  1  0.502071  0.221142  0.301054  1
  Li  Li8851  1  0.221142  0.497929  0.698946  1
  Li  Li8852  1  0.497929  0.778858  0.301054  1
  Li  Li8853  1  0.221142  0.502071  0.301054  1
  Li  Li8854  1  0.502071  0.778858  0.698946  1
  Li  Li8855  1  0.497929  0.221142  0.698946  1
  Li  Li8856  1  0.301054  0.278858  0.997929  1
  Li  Li8857  1  0.778858  0.198946  0.002071  1
  Li  Li8858  1  0.698946  0.721142  0.997929  1
  Li  Li8859  1  0.221142  0.801054  0.002071  1
  Li  Li8860  1  0.301054  0.721142  0.002071  1
  Li  Li8861  1  0.221142  0.198946  0.997929  1
  Li  Li8862  1  0.698946  0.278858  0.002071  1
  Li  Li8863  1  0.778858  0.801054  0.997929  1
  Li  Li8864  1  0.497929  0.801054  0.278858  1
  Li  Li8865  1  0.301054  0.002071  0.721142  1
  Li  Li8866  1  0.502071  0.198946  0.278858  1
  Li  Li8867  1  0.698946  0.997929  0.721142  1
  Li  Li8868  1  0.497929  0.198946  0.721142  1
  Li  Li8869  1  0.698946  0.002071  0.278858  1
  Li  Li8870  1  0.502071  0.801054  0.721142  1
  Li  Li8871  1  0.301054  0.997929  0.278858  1
  Li  Li8872  1  0.778858  0.997929  0.801054  1
  Li  Li8873  1  0.778858  0.002071  0.198946  1
  Li  Li8874  1  0.502071  0.721142  0.801054  1
  Li  Li8875  1  0.221142  0.997929  0.198946  1
  Li  Li8876  1  0.497929  0.278858  0.801054  1
  Li  Li8877  1  0.221142  0.002071  0.801054  1
  Li  Li8878  1  0.502071  0.278858  0.198946  1
  Li  Li8879  1  0.497929  0.721142  0.198946  1
  Li  Li8880  1  0.801054  0.778858  0.997929  1
  Li  Li8881  1  0.278858  0.698946  0.002071  1
  Li  Li8882  1  0.198946  0.221142  0.997929  1
  Li  Li8883  1  0.721142  0.301054  0.002071  1
  Li  Li8884  1  0.801054  0.221142  0.002071  1
  Li  Li8885  1  0.721142  0.698946  0.997929  1
  Li  Li8886  1  0.198946  0.778858  0.002071  1
  Li  Li8887  1  0.278858  0.301054  0.997929  1
  Li  Li8888  1  0.997929  0.301054  0.278858  1
  Li  Li8889  1  0.801054  0.502071  0.721142  1
  Li  Li8890  1  0.002071  0.698946  0.278858  1
  Li  Li8891  1  0.198946  0.497929  0.721142  1
  Li  Li8892  1  0.997929  0.698946  0.721142  1
  Li  Li8893  1  0.198946  0.502071  0.278858  1
  Li  Li8894  1  0.002071  0.301054  0.721142  1
  Li  Li8895  1  0.801054  0.497929  0.278858  1
  Li  Li8896  1  0.278858  0.497929  0.801054  1
  Li  Li8897  1  0.278858  0.502071  0.198946  1
  Li  Li8898  1  0.002071  0.221142  0.801054  1
  Li  Li8899  1  0.721142  0.497929  0.198946  1
  Li  Li8900  1  0.997929  0.778858  0.801054  1
  Li  Li8901  1  0.721142  0.502071  0.801054  1
  Li  Li8902  1  0.002071  0.778858  0.198946  1
  Li  Li8903  1  0.997929  0.221142  0.198946  1
  Li  Li8904  1  0.801054  0.278858  0.497929  1
  Li  Li8905  1  0.278858  0.198946  0.502071  1
  Li  Li8906  1  0.198946  0.721142  0.497929  1
  Li  Li8907  1  0.721142  0.801054  0.502071  1
  Li  Li8908  1  0.801054  0.721142  0.502071  1
  Li  Li8909  1  0.721142  0.198946  0.497929  1
  Li  Li8910  1  0.198946  0.278858  0.502071  1
  Li  Li8911  1  0.278858  0.801054  0.497929  1
  Li  Li8912  1  0.997929  0.801054  0.778858  1
  Li  Li8913  1  0.801054  0.002071  0.221142  1
  Li  Li8914  1  0.002071  0.198946  0.778858  1
  Li  Li8915  1  0.198946  0.997929  0.221142  1
  Li  Li8916  1  0.997929  0.198946  0.221142  1
  Li  Li8917  1  0.198946  0.002071  0.778858  1
  Li  Li8918  1  0.002071  0.801054  0.221142  1
  Li  Li8919  1  0.801054  0.997929  0.778858  1
  Li  Li8920  1  0.278858  0.997929  0.301054  1
  Li  Li8921  1  0.278858  0.002071  0.698946  1
  Li  Li8922  1  0.002071  0.721142  0.301054  1
  Li  Li8923  1  0.721142  0.997929  0.698946  1
  Li  Li8924  1  0.997929  0.278858  0.301054  1
  Li  Li8925  1  0.721142  0.002071  0.301054  1
  Li  Li8926  1  0.002071  0.278858  0.698946  1
  Li  Li8927  1  0.997929  0.721142  0.698946  1
  Li  Li8928  1  0.430788  0.782618  0.416875  1
  Li  Li8929  1  0.782618  0.569212  0.583125  1
  Li  Li8930  1  0.569212  0.217382  0.416875  1
  Li  Li8931  1  0.217382  0.430788  0.583125  1
  Li  Li8932  1  0.430788  0.217382  0.583125  1
  Li  Li8933  1  0.217382  0.569212  0.416875  1
  Li  Li8934  1  0.569212  0.782618  0.583125  1
  Li  Li8935  1  0.782618  0.430788  0.416875  1
  Li  Li8936  1  0.416875  0.430788  0.782618  1
  Li  Li8937  1  0.430788  0.583125  0.217382  1
  Li  Li8938  1  0.583125  0.569212  0.782618  1
  Li  Li8939  1  0.569212  0.416875  0.217382  1
  Li  Li8940  1  0.416875  0.569212  0.217382  1
  Li  Li8941  1  0.569212  0.583125  0.782618  1
  Li  Li8942  1  0.583125  0.430788  0.217382  1
  Li  Li8943  1  0.430788  0.416875  0.782618  1
  Li  Li8944  1  0.782618  0.416875  0.430788  1
  Li  Li8945  1  0.782618  0.583125  0.569212  1
  Li  Li8946  1  0.583125  0.217382  0.430788  1
  Li  Li8947  1  0.217382  0.416875  0.569212  1
  Li  Li8948  1  0.416875  0.782618  0.430788  1
  Li  Li8949  1  0.217382  0.583125  0.430788  1
  Li  Li8950  1  0.583125  0.782618  0.569212  1
  Li  Li8951  1  0.416875  0.217382  0.569212  1
  Li  Li8952  1  0.430788  0.282618  0.916875  1
  Li  Li8953  1  0.782618  0.069212  0.083125  1
  Li  Li8954  1  0.569212  0.717382  0.916875  1
  Li  Li8955  1  0.217382  0.930788  0.083125  1
  Li  Li8956  1  0.430788  0.717382  0.083125  1
  Li  Li8957  1  0.217382  0.069212  0.916875  1
  Li  Li8958  1  0.569212  0.282618  0.083125  1
  Li  Li8959  1  0.782618  0.930788  0.916875  1
  Li  Li8960  1  0.416875  0.930788  0.282618  1
  Li  Li8961  1  0.430788  0.083125  0.717382  1
  Li  Li8962  1  0.583125  0.069212  0.282618  1
  Li  Li8963  1  0.569212  0.916875  0.717382  1
  Li  Li8964  1  0.416875  0.069212  0.717382  1
  Li  Li8965  1  0.569212  0.083125  0.282618  1
  Li  Li8966  1  0.583125  0.930788  0.717382  1
  Li  Li8967  1  0.430788  0.916875  0.282618  1
  Li  Li8968  1  0.782618  0.916875  0.930788  1
  Li  Li8969  1  0.782618  0.083125  0.069212  1
  Li  Li8970  1  0.583125  0.717382  0.930788  1
  Li  Li8971  1  0.217382  0.916875  0.069212  1
  Li  Li8972  1  0.416875  0.282618  0.930788  1
  Li  Li8973  1  0.217382  0.083125  0.930788  1
  Li  Li8974  1  0.583125  0.282618  0.069212  1
  Li  Li8975  1  0.416875  0.717382  0.069212  1
  Li  Li8976  1  0.930788  0.782618  0.916875  1
  Li  Li8977  1  0.282618  0.569212  0.083125  1
  Li  Li8978  1  0.069212  0.217382  0.916875  1
  Li  Li8979  1  0.717382  0.430788  0.083125  1
  Li  Li8980  1  0.930788  0.217382  0.083125  1
  Li  Li8981  1  0.717382  0.569212  0.916875  1
  Li  Li8982  1  0.069212  0.782618  0.083125  1
  Li  Li8983  1  0.282618  0.430788  0.916875  1
  Li  Li8984  1  0.916875  0.430788  0.282618  1
  Li  Li8985  1  0.930788  0.583125  0.717382  1
  Li  Li8986  1  0.083125  0.569212  0.282618  1
  Li  Li8987  1  0.069212  0.416875  0.717382  1
  Li  Li8988  1  0.916875  0.569212  0.717382  1
  Li  Li8989  1  0.069212  0.583125  0.282618  1
  Li  Li8990  1  0.083125  0.430788  0.717382  1
  Li  Li8991  1  0.930788  0.416875  0.282618  1
  Li  Li8992  1  0.282618  0.416875  0.930788  1
  Li  Li8993  1  0.282618  0.583125  0.069212  1
  Li  Li8994  1  0.083125  0.217382  0.930788  1
  Li  Li8995  1  0.717382  0.416875  0.069212  1
  Li  Li8996  1  0.916875  0.782618  0.930788  1
  Li  Li8997  1  0.717382  0.583125  0.930788  1
  Li  Li8998  1  0.083125  0.782618  0.069212  1
  Li  Li8999  1  0.916875  0.217382  0.069212  1
  Li  Li9000  1  0.930788  0.282618  0.416875  1
  Li  Li9001  1  0.282618  0.069212  0.583125  1
  Li  Li9002  1  0.069212  0.717382  0.416875  1
  Li  Li9003  1  0.717382  0.930788  0.583125  1
  Li  Li9004  1  0.930788  0.717382  0.583125  1
  Li  Li9005  1  0.717382  0.069212  0.416875  1
  Li  Li9006  1  0.069212  0.282618  0.583125  1
  Li  Li9007  1  0.282618  0.930788  0.416875  1
  Li  Li9008  1  0.916875  0.930788  0.782618  1
  Li  Li9009  1  0.930788  0.083125  0.217382  1
  Li  Li9010  1  0.083125  0.069212  0.782618  1
  Li  Li9011  1  0.069212  0.916875  0.217382  1
  Li  Li9012  1  0.916875  0.069212  0.217382  1
  Li  Li9013  1  0.069212  0.083125  0.782618  1
  Li  Li9014  1  0.083125  0.930788  0.217382  1
  Li  Li9015  1  0.930788  0.916875  0.782618  1
  Li  Li9016  1  0.282618  0.916875  0.430788  1
  Li  Li9017  1  0.282618  0.083125  0.569212  1
  Li  Li9018  1  0.083125  0.717382  0.430788  1
  Li  Li9019  1  0.717382  0.916875  0.569212  1
  Li  Li9020  1  0.916875  0.282618  0.430788  1
  Li  Li9021  1  0.717382  0.083125  0.430788  1
  Li  Li9022  1  0.083125  0.282618  0.569212  1
  Li  Li9023  1  0.916875  0.717382  0.569212  1
  Li  Li9024  1  0.474770  0.709641  0.206326  1
  Li  Li9025  1  0.709641  0.525230  0.793674  1
  Li  Li9026  1  0.525230  0.290359  0.206326  1
  Li  Li9027  1  0.290359  0.474770  0.793674  1
  Li  Li9028  1  0.474770  0.290359  0.793674  1
  Li  Li9029  1  0.290359  0.525230  0.206326  1
  Li  Li9030  1  0.525230  0.709641  0.793674  1
  Li  Li9031  1  0.709641  0.474770  0.206326  1
  Li  Li9032  1  0.206326  0.474770  0.709641  1
  Li  Li9033  1  0.474770  0.793674  0.290359  1
  Li  Li9034  1  0.793674  0.525230  0.709641  1
  Li  Li9035  1  0.525230  0.206326  0.290359  1
  Li  Li9036  1  0.206326  0.525230  0.290359  1
  Li  Li9037  1  0.525230  0.793674  0.709641  1
  Li  Li9038  1  0.793674  0.474770  0.290359  1
  Li  Li9039  1  0.474770  0.206326  0.709641  1
  Li  Li9040  1  0.709641  0.206326  0.474770  1
  Li  Li9041  1  0.709641  0.793674  0.525230  1
  Li  Li9042  1  0.793674  0.290359  0.474770  1
  Li  Li9043  1  0.290359  0.206326  0.525230  1
  Li  Li9044  1  0.206326  0.709641  0.474770  1
  Li  Li9045  1  0.290359  0.793674  0.474770  1
  Li  Li9046  1  0.793674  0.709641  0.525230  1
  Li  Li9047  1  0.206326  0.290359  0.525230  1
  Li  Li9048  1  0.474770  0.209641  0.706326  1
  Li  Li9049  1  0.709641  0.025230  0.293674  1
  Li  Li9050  1  0.525230  0.790359  0.706326  1
  Li  Li9051  1  0.290359  0.974770  0.293674  1
  Li  Li9052  1  0.474770  0.790359  0.293674  1
  Li  Li9053  1  0.290359  0.025230  0.706326  1
  Li  Li9054  1  0.525230  0.209641  0.293674  1
  Li  Li9055  1  0.709641  0.974770  0.706326  1
  Li  Li9056  1  0.206326  0.974770  0.209641  1
  Li  Li9057  1  0.474770  0.293674  0.790359  1
  Li  Li9058  1  0.793674  0.025230  0.209641  1
  Li  Li9059  1  0.525230  0.706326  0.790359  1
  Li  Li9060  1  0.206326  0.025230  0.790359  1
  Li  Li9061  1  0.525230  0.293674  0.209641  1
  Li  Li9062  1  0.793674  0.974770  0.790359  1
  Li  Li9063  1  0.474770  0.706326  0.209641  1
  Li  Li9064  1  0.709641  0.706326  0.974770  1
  Li  Li9065  1  0.709641  0.293674  0.025230  1
  Li  Li9066  1  0.793674  0.790359  0.974770  1
  Li  Li9067  1  0.290359  0.706326  0.025230  1
  Li  Li9068  1  0.206326  0.209641  0.974770  1
  Li  Li9069  1  0.290359  0.293674  0.974770  1
  Li  Li9070  1  0.793674  0.209641  0.025230  1
  Li  Li9071  1  0.206326  0.790359  0.025230  1
  Li  Li9072  1  0.974770  0.709641  0.706326  1
  Li  Li9073  1  0.209641  0.525230  0.293674  1
  Li  Li9074  1  0.025230  0.290359  0.706326  1
  Li  Li9075  1  0.790359  0.474770  0.293674  1
  Li  Li9076  1  0.974770  0.290359  0.293674  1
  Li  Li9077  1  0.790359  0.525230  0.706326  1
  Li  Li9078  1  0.025230  0.709641  0.293674  1
  Li  Li9079  1  0.209641  0.474770  0.706326  1
  Li  Li9080  1  0.706326  0.474770  0.209641  1
  Li  Li9081  1  0.974770  0.793674  0.790359  1
  Li  Li9082  1  0.293674  0.525230  0.209641  1
  Li  Li9083  1  0.025230  0.206326  0.790359  1
  Li  Li9084  1  0.706326  0.525230  0.790359  1
  Li  Li9085  1  0.025230  0.793674  0.209641  1
  Li  Li9086  1  0.293674  0.474770  0.790359  1
  Li  Li9087  1  0.974770  0.206326  0.209641  1
  Li  Li9088  1  0.209641  0.206326  0.974770  1
  Li  Li9089  1  0.209641  0.793674  0.025230  1
  Li  Li9090  1  0.293674  0.290359  0.974770  1
  Li  Li9091  1  0.790359  0.206326  0.025230  1
  Li  Li9092  1  0.706326  0.709641  0.974770  1
  Li  Li9093  1  0.790359  0.793674  0.974770  1
  Li  Li9094  1  0.293674  0.709641  0.025230  1
  Li  Li9095  1  0.706326  0.290359  0.025230  1
  Li  Li9096  1  0.974770  0.209641  0.206326  1
  Li  Li9097  1  0.209641  0.025230  0.793674  1
  Li  Li9098  1  0.025230  0.790359  0.206326  1
  Li  Li9099  1  0.790359  0.974770  0.793674  1
  Li  Li9100  1  0.974770  0.790359  0.793674  1
  Li  Li9101  1  0.790359  0.025230  0.206326  1
  Li  Li9102  1  0.025230  0.209641  0.793674  1
  Li  Li9103  1  0.209641  0.974770  0.206326  1
  Li  Li9104  1  0.706326  0.974770  0.709641  1
  Li  Li9105  1  0.974770  0.293674  0.290359  1
  Li  Li9106  1  0.293674  0.025230  0.709641  1
  Li  Li9107  1  0.025230  0.706326  0.290359  1
  Li  Li9108  1  0.706326  0.025230  0.290359  1
  Li  Li9109  1  0.025230  0.293674  0.709641  1
  Li  Li9110  1  0.293674  0.974770  0.290359  1
  Li  Li9111  1  0.974770  0.706326  0.709641  1
  Li  Li9112  1  0.209641  0.706326  0.474770  1
  Li  Li9113  1  0.209641  0.293674  0.525230  1
  Li  Li9114  1  0.293674  0.790359  0.474770  1
  Li  Li9115  1  0.790359  0.706326  0.525230  1
  Li  Li9116  1  0.706326  0.209641  0.474770  1
  Li  Li9117  1  0.790359  0.293674  0.474770  1
  Li  Li9118  1  0.293674  0.209641  0.525230  1
  Li  Li9119  1  0.706326  0.790359  0.525230  1
  Li  Li9120  1  0.295516  0.806554  0.469265  1
  Li  Li9121  1  0.806554  0.704484  0.530735  1
  Li  Li9122  1  0.704484  0.193446  0.469265  1
  Li  Li9123  1  0.193446  0.295516  0.530735  1
  Li  Li9124  1  0.295516  0.193446  0.530735  1
  Li  Li9125  1  0.193446  0.704484  0.469265  1
  Li  Li9126  1  0.704484  0.806554  0.530735  1
  Li  Li9127  1  0.806554  0.295516  0.469265  1
  Li  Li9128  1  0.469265  0.295516  0.806554  1
  Li  Li9129  1  0.295516  0.530735  0.193446  1
  Li  Li9130  1  0.530735  0.704484  0.806554  1
  Li  Li9131  1  0.704484  0.469265  0.193446  1
  Li  Li9132  1  0.469265  0.704484  0.193446  1
  Li  Li9133  1  0.704484  0.530735  0.806554  1
  Li  Li9134  1  0.530735  0.295516  0.193446  1
  Li  Li9135  1  0.295516  0.469265  0.806554  1
  Li  Li9136  1  0.806554  0.469265  0.295516  1
  Li  Li9137  1  0.806554  0.530735  0.704484  1
  Li  Li9138  1  0.530735  0.193446  0.295516  1
  Li  Li9139  1  0.193446  0.469265  0.704484  1
  Li  Li9140  1  0.469265  0.806554  0.295516  1
  Li  Li9141  1  0.193446  0.530735  0.295516  1
  Li  Li9142  1  0.530735  0.806554  0.704484  1
  Li  Li9143  1  0.469265  0.193446  0.704484  1
  Li  Li9144  1  0.295516  0.306554  0.969265  1
  Li  Li9145  1  0.806554  0.204484  0.030735  1
  Li  Li9146  1  0.704484  0.693446  0.969265  1
  Li  Li9147  1  0.193446  0.795516  0.030735  1
  Li  Li9148  1  0.295516  0.693446  0.030735  1
  Li  Li9149  1  0.193446  0.204484  0.969265  1
  Li  Li9150  1  0.704484  0.306554  0.030735  1
  Li  Li9151  1  0.806554  0.795516  0.969265  1
  Li  Li9152  1  0.469265  0.795516  0.306554  1
  Li  Li9153  1  0.295516  0.030735  0.693446  1
  Li  Li9154  1  0.530735  0.204484  0.306554  1
  Li  Li9155  1  0.704484  0.969265  0.693446  1
  Li  Li9156  1  0.469265  0.204484  0.693446  1
  Li  Li9157  1  0.704484  0.030735  0.306554  1
  Li  Li9158  1  0.530735  0.795516  0.693446  1
  Li  Li9159  1  0.295516  0.969265  0.306554  1
  Li  Li9160  1  0.806554  0.969265  0.795516  1
  Li  Li9161  1  0.806554  0.030735  0.204484  1
  Li  Li9162  1  0.530735  0.693446  0.795516  1
  Li  Li9163  1  0.193446  0.969265  0.204484  1
  Li  Li9164  1  0.469265  0.306554  0.795516  1
  Li  Li9165  1  0.193446  0.030735  0.795516  1
  Li  Li9166  1  0.530735  0.306554  0.204484  1
  Li  Li9167  1  0.469265  0.693446  0.204484  1
  Li  Li9168  1  0.795516  0.806554  0.969265  1
  Li  Li9169  1  0.306554  0.704484  0.030735  1
  Li  Li9170  1  0.204484  0.193446  0.969265  1
  Li  Li9171  1  0.693446  0.295516  0.030735  1
  Li  Li9172  1  0.795516  0.193446  0.030735  1
  Li  Li9173  1  0.693446  0.704484  0.969265  1
  Li  Li9174  1  0.204484  0.806554  0.030735  1
  Li  Li9175  1  0.306554  0.295516  0.969265  1
  Li  Li9176  1  0.969265  0.295516  0.306554  1
  Li  Li9177  1  0.795516  0.530735  0.693446  1
  Li  Li9178  1  0.030735  0.704484  0.306554  1
  Li  Li9179  1  0.204484  0.469265  0.693446  1
  Li  Li9180  1  0.969265  0.704484  0.693446  1
  Li  Li9181  1  0.204484  0.530735  0.306554  1
  Li  Li9182  1  0.030735  0.295516  0.693446  1
  Li  Li9183  1  0.795516  0.469265  0.306554  1
  Li  Li9184  1  0.306554  0.469265  0.795516  1
  Li  Li9185  1  0.306554  0.530735  0.204484  1
  Li  Li9186  1  0.030735  0.193446  0.795516  1
  Li  Li9187  1  0.693446  0.469265  0.204484  1
  Li  Li9188  1  0.969265  0.806554  0.795516  1
  Li  Li9189  1  0.693446  0.530735  0.795516  1
  Li  Li9190  1  0.030735  0.806554  0.204484  1
  Li  Li9191  1  0.969265  0.193446  0.204484  1
  Li  Li9192  1  0.795516  0.306554  0.469265  1
  Li  Li9193  1  0.306554  0.204484  0.530735  1
  Li  Li9194  1  0.204484  0.693446  0.469265  1
  Li  Li9195  1  0.693446  0.795516  0.530735  1
  Li  Li9196  1  0.795516  0.693446  0.530735  1
  Li  Li9197  1  0.693446  0.204484  0.469265  1
  Li  Li9198  1  0.204484  0.306554  0.530735  1
  Li  Li9199  1  0.306554  0.795516  0.469265  1
  Li  Li9200  1  0.969265  0.795516  0.806554  1
  Li  Li9201  1  0.795516  0.030735  0.193446  1
  Li  Li9202  1  0.030735  0.204484  0.806554  1
  Li  Li9203  1  0.204484  0.969265  0.193446  1
  Li  Li9204  1  0.969265  0.204484  0.193446  1
  Li  Li9205  1  0.204484  0.030735  0.806554  1
  Li  Li9206  1  0.030735  0.795516  0.193446  1
  Li  Li9207  1  0.795516  0.969265  0.806554  1
  Li  Li9208  1  0.306554  0.969265  0.295516  1
  Li  Li9209  1  0.306554  0.030735  0.704484  1
  Li  Li9210  1  0.030735  0.693446  0.295516  1
  Li  Li9211  1  0.693446  0.969265  0.704484  1
  Li  Li9212  1  0.969265  0.306554  0.295516  1
  Li  Li9213  1  0.693446  0.030735  0.295516  1
  Li  Li9214  1  0.030735  0.306554  0.704484  1
  Li  Li9215  1  0.969265  0.693446  0.704484  1
  Li  Li9216  1  0.993686  0.230399  0.244234  1
  Li  Li9217  1  0.230399  0.006314  0.755766  1
  Li  Li9218  1  0.006314  0.769601  0.244234  1
  Li  Li9219  1  0.769601  0.993686  0.755766  1
  Li  Li9220  1  0.993686  0.769601  0.755766  1
  Li  Li9221  1  0.769601  0.006314  0.244234  1
  Li  Li9222  1  0.006314  0.230399  0.755766  1
  Li  Li9223  1  0.230399  0.993686  0.244234  1
  Li  Li9224  1  0.244234  0.993686  0.230399  1
  Li  Li9225  1  0.993686  0.755766  0.769601  1
  Li  Li9226  1  0.755766  0.006314  0.230399  1
  Li  Li9227  1  0.006314  0.244234  0.769601  1
  Li  Li9228  1  0.244234  0.006314  0.769601  1
  Li  Li9229  1  0.006314  0.755766  0.230399  1
  Li  Li9230  1  0.755766  0.993686  0.769601  1
  Li  Li9231  1  0.993686  0.244234  0.230399  1
  Li  Li9232  1  0.230399  0.244234  0.993686  1
  Li  Li9233  1  0.230399  0.755766  0.006314  1
  Li  Li9234  1  0.755766  0.769601  0.993686  1
  Li  Li9235  1  0.769601  0.244234  0.006314  1
  Li  Li9236  1  0.244234  0.230399  0.993686  1
  Li  Li9237  1  0.769601  0.755766  0.993686  1
  Li  Li9238  1  0.755766  0.230399  0.006314  1
  Li  Li9239  1  0.244234  0.769601  0.006314  1
  Li  Li9240  1  0.993686  0.730399  0.744234  1
  Li  Li9241  1  0.230399  0.506314  0.255766  1
  Li  Li9242  1  0.006314  0.269601  0.744234  1
  Li  Li9243  1  0.769601  0.493686  0.255766  1
  Li  Li9244  1  0.993686  0.269601  0.255766  1
  Li  Li9245  1  0.769601  0.506314  0.744234  1
  Li  Li9246  1  0.006314  0.730399  0.255766  1
  Li  Li9247  1  0.230399  0.493686  0.744234  1
  Li  Li9248  1  0.244234  0.493686  0.730399  1
  Li  Li9249  1  0.993686  0.255766  0.269601  1
  Li  Li9250  1  0.755766  0.506314  0.730399  1
  Li  Li9251  1  0.006314  0.744234  0.269601  1
  Li  Li9252  1  0.244234  0.506314  0.269601  1
  Li  Li9253  1  0.006314  0.255766  0.730399  1
  Li  Li9254  1  0.755766  0.493686  0.269601  1
  Li  Li9255  1  0.993686  0.744234  0.730399  1
  Li  Li9256  1  0.230399  0.744234  0.493686  1
  Li  Li9257  1  0.230399  0.255766  0.506314  1
  Li  Li9258  1  0.755766  0.269601  0.493686  1
  Li  Li9259  1  0.769601  0.744234  0.506314  1
  Li  Li9260  1  0.244234  0.730399  0.493686  1
  Li  Li9261  1  0.769601  0.255766  0.493686  1
  Li  Li9262  1  0.755766  0.730399  0.506314  1
  Li  Li9263  1  0.244234  0.269601  0.506314  1
  Li  Li9264  1  0.493686  0.230399  0.744234  1
  Li  Li9265  1  0.730399  0.006314  0.255766  1
  Li  Li9266  1  0.506314  0.769601  0.744234  1
  Li  Li9267  1  0.269601  0.993686  0.255766  1
  Li  Li9268  1  0.493686  0.769601  0.255766  1
  Li  Li9269  1  0.269601  0.006314  0.744234  1
  Li  Li9270  1  0.506314  0.230399  0.255766  1
  Li  Li9271  1  0.730399  0.993686  0.744234  1
  Li  Li9272  1  0.744234  0.993686  0.730399  1
  Li  Li9273  1  0.493686  0.755766  0.269601  1
  Li  Li9274  1  0.255766  0.006314  0.730399  1
  Li  Li9275  1  0.506314  0.244234  0.269601  1
  Li  Li9276  1  0.744234  0.006314  0.269601  1
  Li  Li9277  1  0.506314  0.755766  0.730399  1
  Li  Li9278  1  0.255766  0.993686  0.269601  1
  Li  Li9279  1  0.493686  0.244234  0.730399  1
  Li  Li9280  1  0.730399  0.244234  0.493686  1
  Li  Li9281  1  0.730399  0.755766  0.506314  1
  Li  Li9282  1  0.255766  0.769601  0.493686  1
  Li  Li9283  1  0.269601  0.244234  0.506314  1
  Li  Li9284  1  0.744234  0.230399  0.493686  1
  Li  Li9285  1  0.269601  0.755766  0.493686  1
  Li  Li9286  1  0.255766  0.230399  0.506314  1
  Li  Li9287  1  0.744234  0.769601  0.506314  1
  Li  Li9288  1  0.493686  0.730399  0.244234  1
  Li  Li9289  1  0.730399  0.506314  0.755766  1
  Li  Li9290  1  0.506314  0.269601  0.244234  1
  Li  Li9291  1  0.269601  0.493686  0.755766  1
  Li  Li9292  1  0.493686  0.269601  0.755766  1
  Li  Li9293  1  0.269601  0.506314  0.244234  1
  Li  Li9294  1  0.506314  0.730399  0.755766  1
  Li  Li9295  1  0.730399  0.493686  0.244234  1
  Li  Li9296  1  0.744234  0.493686  0.230399  1
  Li  Li9297  1  0.493686  0.255766  0.769601  1
  Li  Li9298  1  0.255766  0.506314  0.230399  1
  Li  Li9299  1  0.506314  0.744234  0.769601  1
  Li  Li9300  1  0.744234  0.506314  0.769601  1
  Li  Li9301  1  0.506314  0.255766  0.230399  1
  Li  Li9302  1  0.255766  0.493686  0.769601  1
  Li  Li9303  1  0.493686  0.744234  0.230399  1
  Li  Li9304  1  0.730399  0.744234  0.993686  1
  Li  Li9305  1  0.730399  0.255766  0.006314  1
  Li  Li9306  1  0.255766  0.269601  0.993686  1
  Li  Li9307  1  0.269601  0.744234  0.006314  1
  Li  Li9308  1  0.744234  0.730399  0.993686  1
  Li  Li9309  1  0.269601  0.255766  0.993686  1
  Li  Li9310  1  0.255766  0.730399  0.006314  1
  Li  Li9311  1  0.744234  0.269601  0.006314  1
  Li  Li9312  1  0.691034  0.297857  0.021504  1
  Li  Li9313  1  0.297857  0.308966  0.978496  1
  Li  Li9314  1  0.308966  0.702143  0.021504  1
  Li  Li9315  1  0.702143  0.691034  0.978496  1
  Li  Li9316  1  0.691034  0.702143  0.978496  1
  Li  Li9317  1  0.702143  0.308966  0.021504  1
  Li  Li9318  1  0.308966  0.297857  0.978496  1
  Li  Li9319  1  0.297857  0.691034  0.021504  1
  Li  Li9320  1  0.021504  0.691034  0.297857  1
  Li  Li9321  1  0.691034  0.978496  0.702143  1
  Li  Li9322  1  0.978496  0.308966  0.297857  1
  Li  Li9323  1  0.308966  0.021504  0.702143  1
  Li  Li9324  1  0.021504  0.308966  0.702143  1
  Li  Li9325  1  0.308966  0.978496  0.297857  1
  Li  Li9326  1  0.978496  0.691034  0.702143  1
  Li  Li9327  1  0.691034  0.021504  0.297857  1
  Li  Li9328  1  0.297857  0.021504  0.691034  1
  Li  Li9329  1  0.297857  0.978496  0.308966  1
  Li  Li9330  1  0.978496  0.702143  0.691034  1
  Li  Li9331  1  0.702143  0.021504  0.308966  1
  Li  Li9332  1  0.021504  0.297857  0.691034  1
  Li  Li9333  1  0.702143  0.978496  0.691034  1
  Li  Li9334  1  0.978496  0.297857  0.308966  1
  Li  Li9335  1  0.021504  0.702143  0.308966  1
  Li  Li9336  1  0.691034  0.797857  0.521504  1
  Li  Li9337  1  0.297857  0.808966  0.478496  1
  Li  Li9338  1  0.308966  0.202143  0.521504  1
  Li  Li9339  1  0.702143  0.191034  0.478496  1
  Li  Li9340  1  0.691034  0.202143  0.478496  1
  Li  Li9341  1  0.702143  0.808966  0.521504  1
  Li  Li9342  1  0.308966  0.797857  0.478496  1
  Li  Li9343  1  0.297857  0.191034  0.521504  1
  Li  Li9344  1  0.021504  0.191034  0.797857  1
  Li  Li9345  1  0.691034  0.478496  0.202143  1
  Li  Li9346  1  0.978496  0.808966  0.797857  1
  Li  Li9347  1  0.308966  0.521504  0.202143  1
  Li  Li9348  1  0.021504  0.808966  0.202143  1
  Li  Li9349  1  0.308966  0.478496  0.797857  1
  Li  Li9350  1  0.978496  0.191034  0.202143  1
  Li  Li9351  1  0.691034  0.521504  0.797857  1
  Li  Li9352  1  0.297857  0.521504  0.191034  1
  Li  Li9353  1  0.297857  0.478496  0.808966  1
  Li  Li9354  1  0.978496  0.202143  0.191034  1
  Li  Li9355  1  0.702143  0.521504  0.808966  1
  Li  Li9356  1  0.021504  0.797857  0.191034  1
  Li  Li9357  1  0.702143  0.478496  0.191034  1
  Li  Li9358  1  0.978496  0.797857  0.808966  1
  Li  Li9359  1  0.021504  0.202143  0.808966  1
  Li  Li9360  1  0.191034  0.297857  0.521504  1
  Li  Li9361  1  0.797857  0.308966  0.478496  1
  Li  Li9362  1  0.808966  0.702143  0.521504  1
  Li  Li9363  1  0.202143  0.691034  0.478496  1
  Li  Li9364  1  0.191034  0.702143  0.478496  1
  Li  Li9365  1  0.202143  0.308966  0.521504  1
  Li  Li9366  1  0.808966  0.297857  0.478496  1
  Li  Li9367  1  0.797857  0.691034  0.521504  1
  Li  Li9368  1  0.521504  0.691034  0.797857  1
  Li  Li9369  1  0.191034  0.978496  0.202143  1
  Li  Li9370  1  0.478496  0.308966  0.797857  1
  Li  Li9371  1  0.808966  0.021504  0.202143  1
  Li  Li9372  1  0.521504  0.308966  0.202143  1
  Li  Li9373  1  0.808966  0.978496  0.797857  1
  Li  Li9374  1  0.478496  0.691034  0.202143  1
  Li  Li9375  1  0.191034  0.021504  0.797857  1
  Li  Li9376  1  0.797857  0.021504  0.191034  1
  Li  Li9377  1  0.797857  0.978496  0.808966  1
  Li  Li9378  1  0.478496  0.702143  0.191034  1
  Li  Li9379  1  0.202143  0.021504  0.808966  1
  Li  Li9380  1  0.521504  0.297857  0.191034  1
  Li  Li9381  1  0.202143  0.978496  0.191034  1
  Li  Li9382  1  0.478496  0.297857  0.808966  1
  Li  Li9383  1  0.521504  0.702143  0.808966  1
  Li  Li9384  1  0.191034  0.797857  0.021504  1
  Li  Li9385  1  0.797857  0.808966  0.978496  1
  Li  Li9386  1  0.808966  0.202143  0.021504  1
  Li  Li9387  1  0.202143  0.191034  0.978496  1
  Li  Li9388  1  0.191034  0.202143  0.978496  1
  Li  Li9389  1  0.202143  0.808966  0.021504  1
  Li  Li9390  1  0.808966  0.797857  0.978496  1
  Li  Li9391  1  0.797857  0.191034  0.021504  1
  Li  Li9392  1  0.521504  0.191034  0.297857  1
  Li  Li9393  1  0.191034  0.478496  0.702143  1
  Li  Li9394  1  0.478496  0.808966  0.297857  1
  Li  Li9395  1  0.808966  0.521504  0.702143  1
  Li  Li9396  1  0.521504  0.808966  0.702143  1
  Li  Li9397  1  0.808966  0.478496  0.297857  1
  Li  Li9398  1  0.478496  0.191034  0.702143  1
  Li  Li9399  1  0.191034  0.521504  0.297857  1
  Li  Li9400  1  0.797857  0.521504  0.691034  1
  Li  Li9401  1  0.797857  0.478496  0.308966  1
  Li  Li9402  1  0.478496  0.202143  0.691034  1
  Li  Li9403  1  0.202143  0.521504  0.308966  1
  Li  Li9404  1  0.521504  0.797857  0.691034  1
  Li  Li9405  1  0.202143  0.478496  0.691034  1
  Li  Li9406  1  0.478496  0.797857  0.308966  1
  Li  Li9407  1  0.521504  0.202143  0.308966  1
  Li  Li9408  1  0.913710  0.077906  0.232642  1
  Li  Li9409  1  0.077906  0.086290  0.767358  1
  Li  Li9410  1  0.086290  0.922094  0.232642  1
  Li  Li9411  1  0.922094  0.913710  0.767358  1
  Li  Li9412  1  0.913710  0.922094  0.767358  1
  Li  Li9413  1  0.922094  0.086290  0.232642  1
  Li  Li9414  1  0.086290  0.077906  0.767358  1
  Li  Li9415  1  0.077906  0.913710  0.232642  1
  Li  Li9416  1  0.232642  0.913710  0.077906  1
  Li  Li9417  1  0.913710  0.767358  0.922094  1
  Li  Li9418  1  0.767358  0.086290  0.077906  1
  Li  Li9419  1  0.086290  0.232642  0.922094  1
  Li  Li9420  1  0.232642  0.086290  0.922094  1
  Li  Li9421  1  0.086290  0.767358  0.077906  1
  Li  Li9422  1  0.767358  0.913710  0.922094  1
  Li  Li9423  1  0.913710  0.232642  0.077906  1
  Li  Li9424  1  0.077906  0.232642  0.913710  1
  Li  Li9425  1  0.077906  0.767358  0.086290  1
  Li  Li9426  1  0.767358  0.922094  0.913710  1
  Li  Li9427  1  0.922094  0.232642  0.086290  1
  Li  Li9428  1  0.232642  0.077906  0.913710  1
  Li  Li9429  1  0.922094  0.767358  0.913710  1
  Li  Li9430  1  0.767358  0.077906  0.086290  1
  Li  Li9431  1  0.232642  0.922094  0.086290  1
  Li  Li9432  1  0.913710  0.577906  0.732642  1
  Li  Li9433  1  0.077906  0.586290  0.267358  1
  Li  Li9434  1  0.086290  0.422094  0.732642  1
  Li  Li9435  1  0.922094  0.413710  0.267358  1
  Li  Li9436  1  0.913710  0.422094  0.267358  1
  Li  Li9437  1  0.922094  0.586290  0.732642  1
  Li  Li9438  1  0.086290  0.577906  0.267358  1
  Li  Li9439  1  0.077906  0.413710  0.732642  1
  Li  Li9440  1  0.232642  0.413710  0.577906  1
  Li  Li9441  1  0.913710  0.267358  0.422094  1
  Li  Li9442  1  0.767358  0.586290  0.577906  1
  Li  Li9443  1  0.086290  0.732642  0.422094  1
  Li  Li9444  1  0.232642  0.586290  0.422094  1
  Li  Li9445  1  0.086290  0.267358  0.577906  1
  Li  Li9446  1  0.767358  0.413710  0.422094  1
  Li  Li9447  1  0.913710  0.732642  0.577906  1
  Li  Li9448  1  0.077906  0.732642  0.413710  1
  Li  Li9449  1  0.077906  0.267358  0.586290  1
  Li  Li9450  1  0.767358  0.422094  0.413710  1
  Li  Li9451  1  0.922094  0.732642  0.586290  1
  Li  Li9452  1  0.232642  0.577906  0.413710  1
  Li  Li9453  1  0.922094  0.267358  0.413710  1
  Li  Li9454  1  0.767358  0.577906  0.586290  1
  Li  Li9455  1  0.232642  0.422094  0.586290  1
  Li  Li9456  1  0.413710  0.077906  0.732642  1
  Li  Li9457  1  0.577906  0.086290  0.267358  1
  Li  Li9458  1  0.586290  0.922094  0.732642  1
  Li  Li9459  1  0.422094  0.913710  0.267358  1
  Li  Li9460  1  0.413710  0.922094  0.267358  1
  Li  Li9461  1  0.422094  0.086290  0.732642  1
  Li  Li9462  1  0.586290  0.077906  0.267358  1
  Li  Li9463  1  0.577906  0.913710  0.732642  1
  Li  Li9464  1  0.732642  0.913710  0.577906  1
  Li  Li9465  1  0.413710  0.767358  0.422094  1
  Li  Li9466  1  0.267358  0.086290  0.577906  1
  Li  Li9467  1  0.586290  0.232642  0.422094  1
  Li  Li9468  1  0.732642  0.086290  0.422094  1
  Li  Li9469  1  0.586290  0.767358  0.577906  1
  Li  Li9470  1  0.267358  0.913710  0.422094  1
  Li  Li9471  1  0.413710  0.232642  0.577906  1
  Li  Li9472  1  0.577906  0.232642  0.413710  1
  Li  Li9473  1  0.577906  0.767358  0.586290  1
  Li  Li9474  1  0.267358  0.922094  0.413710  1
  Li  Li9475  1  0.422094  0.232642  0.586290  1
  Li  Li9476  1  0.732642  0.077906  0.413710  1
  Li  Li9477  1  0.422094  0.767358  0.413710  1
  Li  Li9478  1  0.267358  0.077906  0.586290  1
  Li  Li9479  1  0.732642  0.922094  0.586290  1
  Li  Li9480  1  0.413710  0.577906  0.232642  1
  Li  Li9481  1  0.577906  0.586290  0.767358  1
  Li  Li9482  1  0.586290  0.422094  0.232642  1
  Li  Li9483  1  0.422094  0.413710  0.767358  1
  Li  Li9484  1  0.413710  0.422094  0.767358  1
  Li  Li9485  1  0.422094  0.586290  0.232642  1
  Li  Li9486  1  0.586290  0.577906  0.767358  1
  Li  Li9487  1  0.577906  0.413710  0.232642  1
  Li  Li9488  1  0.732642  0.413710  0.077906  1
  Li  Li9489  1  0.413710  0.267358  0.922094  1
  Li  Li9490  1  0.267358  0.586290  0.077906  1
  Li  Li9491  1  0.586290  0.732642  0.922094  1
  Li  Li9492  1  0.732642  0.586290  0.922094  1
  Li  Li9493  1  0.586290  0.267358  0.077906  1
  Li  Li9494  1  0.267358  0.413710  0.922094  1
  Li  Li9495  1  0.413710  0.732642  0.077906  1
  Li  Li9496  1  0.577906  0.732642  0.913710  1
  Li  Li9497  1  0.577906  0.267358  0.086290  1
  Li  Li9498  1  0.267358  0.422094  0.913710  1
  Li  Li9499  1  0.422094  0.732642  0.086290  1
  Li  Li9500  1  0.732642  0.577906  0.913710  1
  Li  Li9501  1  0.422094  0.267358  0.913710  1
  Li  Li9502  1  0.267358  0.577906  0.086290  1
  Li  Li9503  1  0.732642  0.422094  0.086290  1
  Li  Li9504  1  0.812432  0.295131  0.476948  1
  Li  Li9505  1  0.295131  0.187568  0.523052  1
  Li  Li9506  1  0.187568  0.704869  0.476948  1
  Li  Li9507  1  0.704869  0.812432  0.523052  1
  Li  Li9508  1  0.812432  0.704869  0.523052  1
  Li  Li9509  1  0.704869  0.187568  0.476948  1
  Li  Li9510  1  0.187568  0.295131  0.523052  1
  Li  Li9511  1  0.295131  0.812432  0.476948  1
  Li  Li9512  1  0.476948  0.812432  0.295131  1
  Li  Li9513  1  0.812432  0.523052  0.704869  1
  Li  Li9514  1  0.523052  0.187568  0.295131  1
  Li  Li9515  1  0.187568  0.476948  0.704869  1
  Li  Li9516  1  0.476948  0.187568  0.704869  1
  Li  Li9517  1  0.187568  0.523052  0.295131  1
  Li  Li9518  1  0.523052  0.812432  0.704869  1
  Li  Li9519  1  0.812432  0.476948  0.295131  1
  Li  Li9520  1  0.295131  0.476948  0.812432  1
  Li  Li9521  1  0.295131  0.523052  0.187568  1
  Li  Li9522  1  0.523052  0.704869  0.812432  1
  Li  Li9523  1  0.704869  0.476948  0.187568  1
  Li  Li9524  1  0.476948  0.295131  0.812432  1
  Li  Li9525  1  0.704869  0.523052  0.812432  1
  Li  Li9526  1  0.523052  0.295131  0.187568  1
  Li  Li9527  1  0.476948  0.704869  0.187568  1
  Li  Li9528  1  0.812432  0.795131  0.976948  1
  Li  Li9529  1  0.295131  0.687568  0.023052  1
  Li  Li9530  1  0.187568  0.204869  0.976948  1
  Li  Li9531  1  0.704869  0.312432  0.023052  1
  Li  Li9532  1  0.812432  0.204869  0.023052  1
  Li  Li9533  1  0.704869  0.687568  0.976948  1
  Li  Li9534  1  0.187568  0.795131  0.023052  1
  Li  Li9535  1  0.295131  0.312432  0.976948  1
  Li  Li9536  1  0.476948  0.312432  0.795131  1
  Li  Li9537  1  0.812432  0.023052  0.204869  1
  Li  Li9538  1  0.523052  0.687568  0.795131  1
  Li  Li9539  1  0.187568  0.976948  0.204869  1
  Li  Li9540  1  0.476948  0.687568  0.204869  1
  Li  Li9541  1  0.187568  0.023052  0.795131  1
  Li  Li9542  1  0.523052  0.312432  0.204869  1
  Li  Li9543  1  0.812432  0.976948  0.795131  1
  Li  Li9544  1  0.295131  0.976948  0.312432  1
  Li  Li9545  1  0.295131  0.023052  0.687568  1
  Li  Li9546  1  0.523052  0.204869  0.312432  1
  Li  Li9547  1  0.704869  0.976948  0.687568  1
  Li  Li9548  1  0.476948  0.795131  0.312432  1
  Li  Li9549  1  0.704869  0.023052  0.312432  1
  Li  Li9550  1  0.523052  0.795131  0.687568  1
  Li  Li9551  1  0.476948  0.204869  0.687568  1
  Li  Li9552  1  0.312432  0.295131  0.976948  1
  Li  Li9553  1  0.795131  0.187568  0.023052  1
  Li  Li9554  1  0.687568  0.704869  0.976948  1
  Li  Li9555  1  0.204869  0.812432  0.023052  1
  Li  Li9556  1  0.312432  0.704869  0.023052  1
  Li  Li9557  1  0.204869  0.187568  0.976948  1
  Li  Li9558  1  0.687568  0.295131  0.023052  1
  Li  Li9559  1  0.795131  0.812432  0.976948  1
  Li  Li9560  1  0.976948  0.812432  0.795131  1
  Li  Li9561  1  0.312432  0.523052  0.204869  1
  Li  Li9562  1  0.023052  0.187568  0.795131  1
  Li  Li9563  1  0.687568  0.476948  0.204869  1
  Li  Li9564  1  0.976948  0.187568  0.204869  1
  Li  Li9565  1  0.687568  0.523052  0.795131  1
  Li  Li9566  1  0.023052  0.812432  0.204869  1
  Li  Li9567  1  0.312432  0.476948  0.795131  1
  Li  Li9568  1  0.795131  0.476948  0.312432  1
  Li  Li9569  1  0.795131  0.523052  0.687568  1
  Li  Li9570  1  0.023052  0.704869  0.312432  1
  Li  Li9571  1  0.204869  0.476948  0.687568  1
  Li  Li9572  1  0.976948  0.295131  0.312432  1
  Li  Li9573  1  0.204869  0.523052  0.312432  1
  Li  Li9574  1  0.023052  0.295131  0.687568  1
  Li  Li9575  1  0.976948  0.704869  0.687568  1
  Li  Li9576  1  0.312432  0.795131  0.476948  1
  Li  Li9577  1  0.795131  0.687568  0.523052  1
  Li  Li9578  1  0.687568  0.204869  0.476948  1
  Li  Li9579  1  0.204869  0.312432  0.523052  1
  Li  Li9580  1  0.312432  0.204869  0.523052  1
  Li  Li9581  1  0.204869  0.687568  0.476948  1
  Li  Li9582  1  0.687568  0.795131  0.523052  1
  Li  Li9583  1  0.795131  0.312432  0.476948  1
  Li  Li9584  1  0.976948  0.312432  0.295131  1
  Li  Li9585  1  0.312432  0.023052  0.704869  1
  Li  Li9586  1  0.023052  0.687568  0.295131  1
  Li  Li9587  1  0.687568  0.976948  0.704869  1
  Li  Li9588  1  0.976948  0.687568  0.704869  1
  Li  Li9589  1  0.687568  0.023052  0.295131  1
  Li  Li9590  1  0.023052  0.312432  0.704869  1
  Li  Li9591  1  0.312432  0.976948  0.295131  1
  Li  Li9592  1  0.795131  0.976948  0.812432  1
  Li  Li9593  1  0.795131  0.023052  0.187568  1
  Li  Li9594  1  0.023052  0.204869  0.812432  1
  Li  Li9595  1  0.204869  0.976948  0.187568  1
  Li  Li9596  1  0.976948  0.795131  0.812432  1
  Li  Li9597  1  0.204869  0.023052  0.812432  1
  Li  Li9598  1  0.023052  0.795131  0.187568  1
  Li  Li9599  1  0.976948  0.204869  0.187568  1
  Li  Li9600  1  0.709023  0.475445  0.211115  1
  Li  Li9601  1  0.475445  0.290977  0.788885  1
  Li  Li9602  1  0.290977  0.524555  0.211115  1
  Li  Li9603  1  0.524555  0.709023  0.788885  1
  Li  Li9604  1  0.709023  0.524555  0.788885  1
  Li  Li9605  1  0.524555  0.290977  0.211115  1
  Li  Li9606  1  0.290977  0.475445  0.788885  1
  Li  Li9607  1  0.475445  0.709023  0.211115  1
  Li  Li9608  1  0.211115  0.709023  0.475445  1
  Li  Li9609  1  0.709023  0.788885  0.524555  1
  Li  Li9610  1  0.788885  0.290977  0.475445  1
  Li  Li9611  1  0.290977  0.211115  0.524555  1
  Li  Li9612  1  0.211115  0.290977  0.524555  1
  Li  Li9613  1  0.290977  0.788885  0.475445  1
  Li  Li9614  1  0.788885  0.709023  0.524555  1
  Li  Li9615  1  0.709023  0.211115  0.475445  1
  Li  Li9616  1  0.475445  0.211115  0.709023  1
  Li  Li9617  1  0.475445  0.788885  0.290977  1
  Li  Li9618  1  0.788885  0.524555  0.709023  1
  Li  Li9619  1  0.524555  0.211115  0.290977  1
  Li  Li9620  1  0.211115  0.475445  0.709023  1
  Li  Li9621  1  0.524555  0.788885  0.709023  1
  Li  Li9622  1  0.788885  0.475445  0.290977  1
  Li  Li9623  1  0.211115  0.524555  0.290977  1
  Li  Li9624  1  0.709023  0.975445  0.711115  1
  Li  Li9625  1  0.475445  0.790977  0.288885  1
  Li  Li9626  1  0.290977  0.024555  0.711115  1
  Li  Li9627  1  0.524555  0.209023  0.288885  1
  Li  Li9628  1  0.709023  0.024555  0.288885  1
  Li  Li9629  1  0.524555  0.790977  0.711115  1
  Li  Li9630  1  0.290977  0.975445  0.288885  1
  Li  Li9631  1  0.475445  0.209023  0.711115  1
  Li  Li9632  1  0.211115  0.209023  0.975445  1
  Li  Li9633  1  0.709023  0.288885  0.024555  1
  Li  Li9634  1  0.788885  0.790977  0.975445  1
  Li  Li9635  1  0.290977  0.711115  0.024555  1
  Li  Li9636  1  0.211115  0.790977  0.024555  1
  Li  Li9637  1  0.290977  0.288885  0.975445  1
  Li  Li9638  1  0.788885  0.209023  0.024555  1
  Li  Li9639  1  0.709023  0.711115  0.975445  1
  Li  Li9640  1  0.475445  0.711115  0.209023  1
  Li  Li9641  1  0.475445  0.288885  0.790977  1
  Li  Li9642  1  0.788885  0.024555  0.209023  1
  Li  Li9643  1  0.524555  0.711115  0.790977  1
  Li  Li9644  1  0.211115  0.975445  0.209023  1
  Li  Li9645  1  0.524555  0.288885  0.209023  1
  Li  Li9646  1  0.788885  0.975445  0.790977  1
  Li  Li9647  1  0.211115  0.024555  0.790977  1
  Li  Li9648  1  0.209023  0.475445  0.711115  1
  Li  Li9649  1  0.975445  0.290977  0.288885  1
  Li  Li9650  1  0.790977  0.524555  0.711115  1
  Li  Li9651  1  0.024555  0.709023  0.288885  1
  Li  Li9652  1  0.209023  0.524555  0.288885  1
  Li  Li9653  1  0.024555  0.290977  0.711115  1
  Li  Li9654  1  0.790977  0.475445  0.288885  1
  Li  Li9655  1  0.975445  0.709023  0.711115  1
  Li  Li9656  1  0.711115  0.709023  0.975445  1
  Li  Li9657  1  0.209023  0.788885  0.024555  1
  Li  Li9658  1  0.288885  0.290977  0.975445  1
  Li  Li9659  1  0.790977  0.211115  0.024555  1
  Li  Li9660  1  0.711115  0.290977  0.024555  1
  Li  Li9661  1  0.790977  0.788885  0.975445  1
  Li  Li9662  1  0.288885  0.709023  0.024555  1
  Li  Li9663  1  0.209023  0.211115  0.975445  1
  Li  Li9664  1  0.975445  0.211115  0.209023  1
  Li  Li9665  1  0.975445  0.788885  0.790977  1
  Li  Li9666  1  0.288885  0.524555  0.209023  1
  Li  Li9667  1  0.024555  0.211115  0.790977  1
  Li  Li9668  1  0.711115  0.475445  0.209023  1
  Li  Li9669  1  0.024555  0.788885  0.209023  1
  Li  Li9670  1  0.288885  0.475445  0.790977  1
  Li  Li9671  1  0.711115  0.524555  0.790977  1
  Li  Li9672  1  0.209023  0.975445  0.211115  1
  Li  Li9673  1  0.975445  0.790977  0.788885  1
  Li  Li9674  1  0.790977  0.024555  0.211115  1
  Li  Li9675  1  0.024555  0.209023  0.788885  1
  Li  Li9676  1  0.209023  0.024555  0.788885  1
  Li  Li9677  1  0.024555  0.790977  0.211115  1
  Li  Li9678  1  0.790977  0.975445  0.788885  1
  Li  Li9679  1  0.975445  0.209023  0.211115  1
  Li  Li9680  1  0.711115  0.209023  0.475445  1
  Li  Li9681  1  0.209023  0.288885  0.524555  1
  Li  Li9682  1  0.288885  0.790977  0.475445  1
  Li  Li9683  1  0.790977  0.711115  0.524555  1
  Li  Li9684  1  0.711115  0.790977  0.524555  1
  Li  Li9685  1  0.790977  0.288885  0.475445  1
  Li  Li9686  1  0.288885  0.209023  0.524555  1
  Li  Li9687  1  0.209023  0.711115  0.475445  1
  Li  Li9688  1  0.975445  0.711115  0.709023  1
  Li  Li9689  1  0.975445  0.288885  0.290977  1
  Li  Li9690  1  0.288885  0.024555  0.709023  1
  Li  Li9691  1  0.024555  0.711115  0.290977  1
  Li  Li9692  1  0.711115  0.975445  0.709023  1
  Li  Li9693  1  0.024555  0.288885  0.709023  1
  Li  Li9694  1  0.288885  0.975445  0.290977  1
  Li  Li9695  1  0.711115  0.024555  0.290977  1
  Li  Li9696  1  0.709587  0.298665  0.020281  1
  Li  Li9697  1  0.298665  0.290413  0.979719  1
  Li  Li9698  1  0.290413  0.701335  0.020281  1
  Li  Li9699  1  0.701335  0.709587  0.979719  1
  Li  Li9700  1  0.709587  0.701335  0.979719  1
  Li  Li9701  1  0.701335  0.290413  0.020281  1
  Li  Li9702  1  0.290413  0.298665  0.979719  1
  Li  Li9703  1  0.298665  0.709587  0.020281  1
  Li  Li9704  1  0.020281  0.709587  0.298665  1
  Li  Li9705  1  0.709587  0.979719  0.701335  1
  Li  Li9706  1  0.979719  0.290413  0.298665  1
  Li  Li9707  1  0.290413  0.020281  0.701335  1
  Li  Li9708  1  0.020281  0.290413  0.701335  1
  Li  Li9709  1  0.290413  0.979719  0.298665  1
  Li  Li9710  1  0.979719  0.709587  0.701335  1
  Li  Li9711  1  0.709587  0.020281  0.298665  1
  Li  Li9712  1  0.298665  0.020281  0.709587  1
  Li  Li9713  1  0.298665  0.979719  0.290413  1
  Li  Li9714  1  0.979719  0.701335  0.709587  1
  Li  Li9715  1  0.701335  0.020281  0.290413  1
  Li  Li9716  1  0.020281  0.298665  0.709587  1
  Li  Li9717  1  0.701335  0.979719  0.709587  1
  Li  Li9718  1  0.979719  0.298665  0.290413  1
  Li  Li9719  1  0.020281  0.701335  0.290413  1
  Li  Li9720  1  0.709587  0.798665  0.520281  1
  Li  Li9721  1  0.298665  0.790413  0.479719  1
  Li  Li9722  1  0.290413  0.201335  0.520281  1
  Li  Li9723  1  0.701335  0.209587  0.479719  1
  Li  Li9724  1  0.709587  0.201335  0.479719  1
  Li  Li9725  1  0.701335  0.790413  0.520281  1
  Li  Li9726  1  0.290413  0.798665  0.479719  1
  Li  Li9727  1  0.298665  0.209587  0.520281  1
  Li  Li9728  1  0.020281  0.209587  0.798665  1
  Li  Li9729  1  0.709587  0.479719  0.201335  1
  Li  Li9730  1  0.979719  0.790413  0.798665  1
  Li  Li9731  1  0.290413  0.520281  0.201335  1
  Li  Li9732  1  0.020281  0.790413  0.201335  1
  Li  Li9733  1  0.290413  0.479719  0.798665  1
  Li  Li9734  1  0.979719  0.209587  0.201335  1
  Li  Li9735  1  0.709587  0.520281  0.798665  1
  Li  Li9736  1  0.298665  0.520281  0.209587  1
  Li  Li9737  1  0.298665  0.479719  0.790413  1
  Li  Li9738  1  0.979719  0.201335  0.209587  1
  Li  Li9739  1  0.701335  0.520281  0.790413  1
  Li  Li9740  1  0.020281  0.798665  0.209587  1
  Li  Li9741  1  0.701335  0.479719  0.209587  1
  Li  Li9742  1  0.979719  0.798665  0.790413  1
  Li  Li9743  1  0.020281  0.201335  0.790413  1
  Li  Li9744  1  0.209587  0.298665  0.520281  1
  Li  Li9745  1  0.798665  0.290413  0.479719  1
  Li  Li9746  1  0.790413  0.701335  0.520281  1
  Li  Li9747  1  0.201335  0.709587  0.479719  1
  Li  Li9748  1  0.209587  0.701335  0.479719  1
  Li  Li9749  1  0.201335  0.290413  0.520281  1
  Li  Li9750  1  0.790413  0.298665  0.479719  1
  Li  Li9751  1  0.798665  0.709587  0.520281  1
  Li  Li9752  1  0.520281  0.709587  0.798665  1
  Li  Li9753  1  0.209587  0.979719  0.201335  1
  Li  Li9754  1  0.479719  0.290413  0.798665  1
  Li  Li9755  1  0.790413  0.020281  0.201335  1
  Li  Li9756  1  0.520281  0.290413  0.201335  1
  Li  Li9757  1  0.790413  0.979719  0.798665  1
  Li  Li9758  1  0.479719  0.709587  0.201335  1
  Li  Li9759  1  0.209587  0.020281  0.798665  1
  Li  Li9760  1  0.798665  0.020281  0.209587  1
  Li  Li9761  1  0.798665  0.979719  0.790413  1
  Li  Li9762  1  0.479719  0.701335  0.209587  1
  Li  Li9763  1  0.201335  0.020281  0.790413  1
  Li  Li9764  1  0.520281  0.298665  0.209587  1
  Li  Li9765  1  0.201335  0.979719  0.209587  1
  Li  Li9766  1  0.479719  0.298665  0.790413  1
  Li  Li9767  1  0.520281  0.701335  0.790413  1
  Li  Li9768  1  0.209587  0.798665  0.020281  1
  Li  Li9769  1  0.798665  0.790413  0.979719  1
  Li  Li9770  1  0.790413  0.201335  0.020281  1
  Li  Li9771  1  0.201335  0.209587  0.979719  1
  Li  Li9772  1  0.209587  0.201335  0.979719  1
  Li  Li9773  1  0.201335  0.790413  0.020281  1
  Li  Li9774  1  0.790413  0.798665  0.979719  1
  Li  Li9775  1  0.798665  0.209587  0.020281  1
  Li  Li9776  1  0.520281  0.209587  0.298665  1
  Li  Li9777  1  0.209587  0.479719  0.701335  1
  Li  Li9778  1  0.479719  0.790413  0.298665  1
  Li  Li9779  1  0.790413  0.520281  0.701335  1
  Li  Li9780  1  0.520281  0.790413  0.701335  1
  Li  Li9781  1  0.790413  0.479719  0.298665  1
  Li  Li9782  1  0.479719  0.209587  0.701335  1
  Li  Li9783  1  0.209587  0.520281  0.298665  1
  Li  Li9784  1  0.798665  0.520281  0.709587  1
  Li  Li9785  1  0.798665  0.479719  0.290413  1
  Li  Li9786  1  0.479719  0.201335  0.709587  1
  Li  Li9787  1  0.201335  0.520281  0.290413  1
  Li  Li9788  1  0.520281  0.798665  0.709587  1
  Li  Li9789  1  0.201335  0.479719  0.709587  1
  Li  Li9790  1  0.479719  0.798665  0.290413  1
  Li  Li9791  1  0.520281  0.201335  0.290413  1
  Li  Li9792  1  0.699845  0.044116  0.306393  1
  Li  Li9793  1  0.044116  0.300155  0.693607  1
  Li  Li9794  1  0.300155  0.955884  0.306393  1
  Li  Li9795  1  0.955884  0.699845  0.693607  1
  Li  Li9796  1  0.699845  0.955884  0.693607  1
  Li  Li9797  1  0.955884  0.300155  0.306393  1
  Li  Li9798  1  0.300155  0.044116  0.693607  1
  Li  Li9799  1  0.044116  0.699845  0.306393  1
  Li  Li9800  1  0.306393  0.699845  0.044116  1
  Li  Li9801  1  0.699845  0.693607  0.955884  1
  Li  Li9802  1  0.693607  0.300155  0.044116  1
  Li  Li9803  1  0.300155  0.306393  0.955884  1
  Li  Li9804  1  0.306393  0.300155  0.955884  1
  Li  Li9805  1  0.300155  0.693607  0.044116  1
  Li  Li9806  1  0.693607  0.699845  0.955884  1
  Li  Li9807  1  0.699845  0.306393  0.044116  1
  Li  Li9808  1  0.044116  0.306393  0.699845  1
  Li  Li9809  1  0.044116  0.693607  0.300155  1
  Li  Li9810  1  0.693607  0.955884  0.699845  1
  Li  Li9811  1  0.955884  0.306393  0.300155  1
  Li  Li9812  1  0.306393  0.044116  0.699845  1
  Li  Li9813  1  0.955884  0.693607  0.699845  1
  Li  Li9814  1  0.693607  0.044116  0.300155  1
  Li  Li9815  1  0.306393  0.955884  0.300155  1
  Li  Li9816  1  0.699845  0.544116  0.806393  1
  Li  Li9817  1  0.044116  0.800155  0.193607  1
  Li  Li9818  1  0.300155  0.455884  0.806393  1
  Li  Li9819  1  0.955884  0.199845  0.193607  1
  Li  Li9820  1  0.699845  0.455884  0.193607  1
  Li  Li9821  1  0.955884  0.800155  0.806393  1
  Li  Li9822  1  0.300155  0.544116  0.193607  1
  Li  Li9823  1  0.044116  0.199845  0.806393  1
  Li  Li9824  1  0.306393  0.199845  0.544116  1
  Li  Li9825  1  0.699845  0.193607  0.455884  1
  Li  Li9826  1  0.693607  0.800155  0.544116  1
  Li  Li9827  1  0.300155  0.806393  0.455884  1
  Li  Li9828  1  0.306393  0.800155  0.455884  1
  Li  Li9829  1  0.300155  0.193607  0.544116  1
  Li  Li9830  1  0.693607  0.199845  0.455884  1
  Li  Li9831  1  0.699845  0.806393  0.544116  1
  Li  Li9832  1  0.044116  0.806393  0.199845  1
  Li  Li9833  1  0.044116  0.193607  0.800155  1
  Li  Li9834  1  0.693607  0.455884  0.199845  1
  Li  Li9835  1  0.955884  0.806393  0.800155  1
  Li  Li9836  1  0.306393  0.544116  0.199845  1
  Li  Li9837  1  0.955884  0.193607  0.199845  1
  Li  Li9838  1  0.693607  0.544116  0.800155  1
  Li  Li9839  1  0.306393  0.455884  0.800155  1
  Li  Li9840  1  0.199845  0.044116  0.806393  1
  Li  Li9841  1  0.544116  0.300155  0.193607  1
  Li  Li9842  1  0.800155  0.955884  0.806393  1
  Li  Li9843  1  0.455884  0.699845  0.193607  1
  Li  Li9844  1  0.199845  0.955884  0.193607  1
  Li  Li9845  1  0.455884  0.300155  0.806393  1
  Li  Li9846  1  0.800155  0.044116  0.193607  1
  Li  Li9847  1  0.544116  0.699845  0.806393  1
  Li  Li9848  1  0.806393  0.699845  0.544116  1
  Li  Li9849  1  0.199845  0.693607  0.455884  1
  Li  Li9850  1  0.193607  0.300155  0.544116  1
  Li  Li9851  1  0.800155  0.306393  0.455884  1
  Li  Li9852  1  0.806393  0.300155  0.455884  1
  Li  Li9853  1  0.800155  0.693607  0.544116  1
  Li  Li9854  1  0.193607  0.699845  0.455884  1
  Li  Li9855  1  0.199845  0.306393  0.544116  1
  Li  Li9856  1  0.544116  0.306393  0.199845  1
  Li  Li9857  1  0.544116  0.693607  0.800155  1
  Li  Li9858  1  0.193607  0.955884  0.199845  1
  Li  Li9859  1  0.455884  0.306393  0.800155  1
  Li  Li9860  1  0.806393  0.044116  0.199845  1
  Li  Li9861  1  0.455884  0.693607  0.199845  1
  Li  Li9862  1  0.193607  0.044116  0.800155  1
  Li  Li9863  1  0.806393  0.955884  0.800155  1
  Li  Li9864  1  0.199845  0.544116  0.306393  1
  Li  Li9865  1  0.544116  0.800155  0.693607  1
  Li  Li9866  1  0.800155  0.455884  0.306393  1
  Li  Li9867  1  0.455884  0.199845  0.693607  1
  Li  Li9868  1  0.199845  0.455884  0.693607  1
  Li  Li9869  1  0.455884  0.800155  0.306393  1
  Li  Li9870  1  0.800155  0.544116  0.693607  1
  Li  Li9871  1  0.544116  0.199845  0.306393  1
  Li  Li9872  1  0.806393  0.199845  0.044116  1
  Li  Li9873  1  0.199845  0.193607  0.955884  1
  Li  Li9874  1  0.193607  0.800155  0.044116  1
  Li  Li9875  1  0.800155  0.806393  0.955884  1
  Li  Li9876  1  0.806393  0.800155  0.955884  1
  Li  Li9877  1  0.800155  0.193607  0.044116  1
  Li  Li9878  1  0.193607  0.199845  0.955884  1
  Li  Li9879  1  0.199845  0.806393  0.044116  1
  Li  Li9880  1  0.544116  0.806393  0.699845  1
  Li  Li9881  1  0.544116  0.193607  0.300155  1
  Li  Li9882  1  0.193607  0.455884  0.699845  1
  Li  Li9883  1  0.455884  0.806393  0.300155  1
  Li  Li9884  1  0.806393  0.544116  0.699845  1
  Li  Li9885  1  0.455884  0.193607  0.699845  1
  Li  Li9886  1  0.193607  0.544116  0.300155  1
  Li  Li9887  1  0.806393  0.455884  0.300155  1
  Li  Li9888  1  0.723097  0.026688  0.261280  1
  Li  Li9889  1  0.026688  0.276903  0.738720  1
  Li  Li9890  1  0.276903  0.973312  0.261280  1
  Li  Li9891  1  0.973312  0.723097  0.738720  1
  Li  Li9892  1  0.723097  0.973312  0.738720  1
  Li  Li9893  1  0.973312  0.276903  0.261280  1
  Li  Li9894  1  0.276903  0.026688  0.738720  1
  Li  Li9895  1  0.026688  0.723097  0.261280  1
  Li  Li9896  1  0.261280  0.723097  0.026688  1
  Li  Li9897  1  0.723097  0.738720  0.973312  1
  Li  Li9898  1  0.738720  0.276903  0.026688  1
  Li  Li9899  1  0.276903  0.261280  0.973312  1
  Li  Li9900  1  0.261280  0.276903  0.973312  1
  Li  Li9901  1  0.276903  0.738720  0.026688  1
  Li  Li9902  1  0.738720  0.723097  0.973312  1
  Li  Li9903  1  0.723097  0.261280  0.026688  1
  Li  Li9904  1  0.026688  0.261280  0.723097  1
  Li  Li9905  1  0.026688  0.738720  0.276903  1
  Li  Li9906  1  0.738720  0.973312  0.723097  1
  Li  Li9907  1  0.973312  0.261280  0.276903  1
  Li  Li9908  1  0.261280  0.026688  0.723097  1
  Li  Li9909  1  0.973312  0.738720  0.723097  1
  Li  Li9910  1  0.738720  0.026688  0.276903  1
  Li  Li9911  1  0.261280  0.973312  0.276903  1
  Li  Li9912  1  0.723097  0.526688  0.761280  1
  Li  Li9913  1  0.026688  0.776903  0.238720  1
  Li  Li9914  1  0.276903  0.473312  0.761280  1
  Li  Li9915  1  0.973312  0.223097  0.238720  1
  Li  Li9916  1  0.723097  0.473312  0.238720  1
  Li  Li9917  1  0.973312  0.776903  0.761280  1
  Li  Li9918  1  0.276903  0.526688  0.238720  1
  Li  Li9919  1  0.026688  0.223097  0.761280  1
  Li  Li9920  1  0.261280  0.223097  0.526688  1
  Li  Li9921  1  0.723097  0.238720  0.473312  1
  Li  Li9922  1  0.738720  0.776903  0.526688  1
  Li  Li9923  1  0.276903  0.761280  0.473312  1
  Li  Li9924  1  0.261280  0.776903  0.473312  1
  Li  Li9925  1  0.276903  0.238720  0.526688  1
  Li  Li9926  1  0.738720  0.223097  0.473312  1
  Li  Li9927  1  0.723097  0.761280  0.526688  1
  Li  Li9928  1  0.026688  0.761280  0.223097  1
  Li  Li9929  1  0.026688  0.238720  0.776903  1
  Li  Li9930  1  0.738720  0.473312  0.223097  1
  Li  Li9931  1  0.973312  0.761280  0.776903  1
  Li  Li9932  1  0.261280  0.526688  0.223097  1
  Li  Li9933  1  0.973312  0.238720  0.223097  1
  Li  Li9934  1  0.738720  0.526688  0.776903  1
  Li  Li9935  1  0.261280  0.473312  0.776903  1
  Li  Li9936  1  0.223097  0.026688  0.761280  1
  Li  Li9937  1  0.526688  0.276903  0.238720  1
  Li  Li9938  1  0.776903  0.973312  0.761280  1
  Li  Li9939  1  0.473312  0.723097  0.238720  1
  Li  Li9940  1  0.223097  0.973312  0.238720  1
  Li  Li9941  1  0.473312  0.276903  0.761280  1
  Li  Li9942  1  0.776903  0.026688  0.238720  1
  Li  Li9943  1  0.526688  0.723097  0.761280  1
  Li  Li9944  1  0.761280  0.723097  0.526688  1
  Li  Li9945  1  0.223097  0.738720  0.473312  1
  Li  Li9946  1  0.238720  0.276903  0.526688  1
  Li  Li9947  1  0.776903  0.261280  0.473312  1
  Li  Li9948  1  0.761280  0.276903  0.473312  1
  Li  Li9949  1  0.776903  0.738720  0.526688  1
  Li  Li9950  1  0.238720  0.723097  0.473312  1
  Li  Li9951  1  0.223097  0.261280  0.526688  1
  Li  Li9952  1  0.526688  0.261280  0.223097  1
  Li  Li9953  1  0.526688  0.738720  0.776903  1
  Li  Li9954  1  0.238720  0.973312  0.223097  1
  Li  Li9955  1  0.473312  0.261280  0.776903  1
  Li  Li9956  1  0.761280  0.026688  0.223097  1
  Li  Li9957  1  0.473312  0.738720  0.223097  1
  Li  Li9958  1  0.238720  0.026688  0.776903  1
  Li  Li9959  1  0.761280  0.973312  0.776903  1
  Li  Li9960  1  0.223097  0.526688  0.261280  1
  Li  Li9961  1  0.526688  0.776903  0.738720  1
  Li  Li9962  1  0.776903  0.473312  0.261280  1
  Li  Li9963  1  0.473312  0.223097  0.738720  1
  Li  Li9964  1  0.223097  0.473312  0.738720  1
  Li  Li9965  1  0.473312  0.776903  0.261280  1
  Li  Li9966  1  0.776903  0.526688  0.738720  1
  Li  Li9967  1  0.526688  0.223097  0.261280  1
  Li  Li9968  1  0.761280  0.223097  0.026688  1
  Li  Li9969  1  0.223097  0.238720  0.973312  1
  Li  Li9970  1  0.238720  0.776903  0.026688  1
  Li  Li9971  1  0.776903  0.761280  0.973312  1
  Li  Li9972  1  0.761280  0.776903  0.973312  1
  Li  Li9973  1  0.776903  0.238720  0.026688  1
  Li  Li9974  1  0.238720  0.223097  0.973312  1
  Li  Li9975  1  0.223097  0.761280  0.026688  1
  Li  Li9976  1  0.526688  0.761280  0.723097  1
  Li  Li9977  1  0.526688  0.238720  0.276903  1
  Li  Li9978  1  0.238720  0.473312  0.723097  1
  Li  Li9979  1  0.473312  0.761280  0.276903  1
  Li  Li9980  1  0.761280  0.526688  0.723097  1
  Li  Li9981  1  0.473312  0.238720  0.723097  1
  Li  Li9982  1  0.238720  0.526688  0.276903  1
  Li  Li9983  1  0.761280  0.473312  0.276903  1
  Li  Li9984  1  0.734115  0.096045  0.442931  1
  Li  Li9985  1  0.096045  0.265885  0.557069  1
  Li  Li9986  1  0.265885  0.903955  0.442931  1
  Li  Li9987  1  0.903955  0.734115  0.557069  1
  Li  Li9988  1  0.734115  0.903955  0.557069  1
  Li  Li9989  1  0.903955  0.265885  0.442931  1
  Li  Li9990  1  0.265885  0.096045  0.557069  1
  Li  Li9991  1  0.096045  0.734115  0.442931  1
  Li  Li9992  1  0.442931  0.734115  0.096045  1
  Li  Li9993  1  0.734115  0.557069  0.903955  1
  Li  Li9994  1  0.557069  0.265885  0.096045  1
  Li  Li9995  1  0.265885  0.442931  0.903955  1
  Li  Li9996  1  0.442931  0.265885  0.903955  1
  Li  Li9997  1  0.265885  0.557069  0.096045  1
  Li  Li9998  1  0.557069  0.734115  0.903955  1
  Li  Li9999  1  0.734115  0.442931  0.096045  1
  Li  Li10000  1  0.096045  0.442931  0.734115  1
  Li  Li10001  1  0.096045  0.557069  0.265885  1
  Li  Li10002  1  0.557069  0.903955  0.734115  1
  Li  Li10003  1  0.903955  0.442931  0.265885  1
  Li  Li10004  1  0.442931  0.096045  0.734115  1
  Li  Li10005  1  0.903955  0.557069  0.734115  1
  Li  Li10006  1  0.557069  0.096045  0.265885  1
  Li  Li10007  1  0.442931  0.903955  0.265885  1
  Li  Li10008  1  0.734115  0.596045  0.942931  1
  Li  Li10009  1  0.096045  0.765885  0.057069  1
  Li  Li10010  1  0.265885  0.403955  0.942931  1
  Li  Li10011  1  0.903955  0.234115  0.057069  1
  Li  Li10012  1  0.734115  0.403955  0.057069  1
  Li  Li10013  1  0.903955  0.765885  0.942931  1
  Li  Li10014  1  0.265885  0.596045  0.057069  1
  Li  Li10015  1  0.096045  0.234115  0.942931  1
  Li  Li10016  1  0.442931  0.234115  0.596045  1
  Li  Li10017  1  0.734115  0.057069  0.403955  1
  Li  Li10018  1  0.557069  0.765885  0.596045  1
  Li  Li10019  1  0.265885  0.942931  0.403955  1
  Li  Li10020  1  0.442931  0.765885  0.403955  1
  Li  Li10021  1  0.265885  0.057069  0.596045  1
  Li  Li10022  1  0.557069  0.234115  0.403955  1
  Li  Li10023  1  0.734115  0.942931  0.596045  1
  Li  Li10024  1  0.096045  0.942931  0.234115  1
  Li  Li10025  1  0.096045  0.057069  0.765885  1
  Li  Li10026  1  0.557069  0.403955  0.234115  1
  Li  Li10027  1  0.903955  0.942931  0.765885  1
  Li  Li10028  1  0.442931  0.596045  0.234115  1
  Li  Li10029  1  0.903955  0.057069  0.234115  1
  Li  Li10030  1  0.557069  0.596045  0.765885  1
  Li  Li10031  1  0.442931  0.403955  0.765885  1
  Li  Li10032  1  0.234115  0.096045  0.942931  1
  Li  Li10033  1  0.596045  0.265885  0.057069  1
  Li  Li10034  1  0.765885  0.903955  0.942931  1
  Li  Li10035  1  0.403955  0.734115  0.057069  1
  Li  Li10036  1  0.234115  0.903955  0.057069  1
  Li  Li10037  1  0.403955  0.265885  0.942931  1
  Li  Li10038  1  0.765885  0.096045  0.057069  1
  Li  Li10039  1  0.596045  0.734115  0.942931  1
  Li  Li10040  1  0.942931  0.734115  0.596045  1
  Li  Li10041  1  0.234115  0.557069  0.403955  1
  Li  Li10042  1  0.057069  0.265885  0.596045  1
  Li  Li10043  1  0.765885  0.442931  0.403955  1
  Li  Li10044  1  0.942931  0.265885  0.403955  1
  Li  Li10045  1  0.765885  0.557069  0.596045  1
  Li  Li10046  1  0.057069  0.734115  0.403955  1
  Li  Li10047  1  0.234115  0.442931  0.596045  1
  Li  Li10048  1  0.596045  0.442931  0.234115  1
  Li  Li10049  1  0.596045  0.557069  0.765885  1
  Li  Li10050  1  0.057069  0.903955  0.234115  1
  Li  Li10051  1  0.403955  0.442931  0.765885  1
  Li  Li10052  1  0.942931  0.096045  0.234115  1
  Li  Li10053  1  0.403955  0.557069  0.234115  1
  Li  Li10054  1  0.057069  0.096045  0.765885  1
  Li  Li10055  1  0.942931  0.903955  0.765885  1
  Li  Li10056  1  0.234115  0.596045  0.442931  1
  Li  Li10057  1  0.596045  0.765885  0.557069  1
  Li  Li10058  1  0.765885  0.403955  0.442931  1
  Li  Li10059  1  0.403955  0.234115  0.557069  1
  Li  Li10060  1  0.234115  0.403955  0.557069  1
  Li  Li10061  1  0.403955  0.765885  0.442931  1
  Li  Li10062  1  0.765885  0.596045  0.557069  1
  Li  Li10063  1  0.596045  0.234115  0.442931  1
  Li  Li10064  1  0.942931  0.234115  0.096045  1
  Li  Li10065  1  0.234115  0.057069  0.903955  1
  Li  Li10066  1  0.057069  0.765885  0.096045  1
  Li  Li10067  1  0.765885  0.942931  0.903955  1
  Li  Li10068  1  0.942931  0.765885  0.903955  1
  Li  Li10069  1  0.765885  0.057069  0.096045  1
  Li  Li10070  1  0.057069  0.234115  0.903955  1
  Li  Li10071  1  0.234115  0.942931  0.096045  1
  Li  Li10072  1  0.596045  0.942931  0.734115  1
  Li  Li10073  1  0.596045  0.057069  0.265885  1
  Li  Li10074  1  0.057069  0.403955  0.734115  1
  Li  Li10075  1  0.403955  0.942931  0.265885  1
  Li  Li10076  1  0.942931  0.596045  0.734115  1
  Li  Li10077  1  0.403955  0.057069  0.734115  1
  Li  Li10078  1  0.057069  0.596045  0.265885  1
  Li  Li10079  1  0.942931  0.403955  0.265885  1
  Li  Li10080  1  0.770704  0.268204  0.474786  1
  Li  Li10081  1  0.268204  0.229296  0.525214  1
  Li  Li10082  1  0.229296  0.731796  0.474786  1
  Li  Li10083  1  0.731796  0.770704  0.525214  1
  Li  Li10084  1  0.770704  0.731796  0.525214  1
  Li  Li10085  1  0.731796  0.229296  0.474786  1
  Li  Li10086  1  0.229296  0.268204  0.525214  1
  Li  Li10087  1  0.268204  0.770704  0.474786  1
  Li  Li10088  1  0.474786  0.770704  0.268204  1
  Li  Li10089  1  0.770704  0.525214  0.731796  1
  Li  Li10090  1  0.525214  0.229296  0.268204  1
  Li  Li10091  1  0.229296  0.474786  0.731796  1
  Li  Li10092  1  0.474786  0.229296  0.731796  1
  Li  Li10093  1  0.229296  0.525214  0.268204  1
  Li  Li10094  1  0.525214  0.770704  0.731796  1
  Li  Li10095  1  0.770704  0.474786  0.268204  1
  Li  Li10096  1  0.268204  0.474786  0.770704  1
  Li  Li10097  1  0.268204  0.525214  0.229296  1
  Li  Li10098  1  0.525214  0.731796  0.770704  1
  Li  Li10099  1  0.731796  0.474786  0.229296  1
  Li  Li10100  1  0.474786  0.268204  0.770704  1
  Li  Li10101  1  0.731796  0.525214  0.770704  1
  Li  Li10102  1  0.525214  0.268204  0.229296  1
  Li  Li10103  1  0.474786  0.731796  0.229296  1
  Li  Li10104  1  0.770704  0.768204  0.974786  1
  Li  Li10105  1  0.268204  0.729296  0.025214  1
  Li  Li10106  1  0.229296  0.231796  0.974786  1
  Li  Li10107  1  0.731796  0.270704  0.025214  1
  Li  Li10108  1  0.770704  0.231796  0.025214  1
  Li  Li10109  1  0.731796  0.729296  0.974786  1
  Li  Li10110  1  0.229296  0.768204  0.025214  1
  Li  Li10111  1  0.268204  0.270704  0.974786  1
  Li  Li10112  1  0.474786  0.270704  0.768204  1
  Li  Li10113  1  0.770704  0.025214  0.231796  1
  Li  Li10114  1  0.525214  0.729296  0.768204  1
  Li  Li10115  1  0.229296  0.974786  0.231796  1
  Li  Li10116  1  0.474786  0.729296  0.231796  1
  Li  Li10117  1  0.229296  0.025214  0.768204  1
  Li  Li10118  1  0.525214  0.270704  0.231796  1
  Li  Li10119  1  0.770704  0.974786  0.768204  1
  Li  Li10120  1  0.268204  0.974786  0.270704  1
  Li  Li10121  1  0.268204  0.025214  0.729296  1
  Li  Li10122  1  0.525214  0.231796  0.270704  1
  Li  Li10123  1  0.731796  0.974786  0.729296  1
  Li  Li10124  1  0.474786  0.768204  0.270704  1
  Li  Li10125  1  0.731796  0.025214  0.270704  1
  Li  Li10126  1  0.525214  0.768204  0.729296  1
  Li  Li10127  1  0.474786  0.231796  0.729296  1
  Li  Li10128  1  0.270704  0.268204  0.974786  1
  Li  Li10129  1  0.768204  0.229296  0.025214  1
  Li  Li10130  1  0.729296  0.731796  0.974786  1
  Li  Li10131  1  0.231796  0.770704  0.025214  1
  Li  Li10132  1  0.270704  0.731796  0.025214  1
  Li  Li10133  1  0.231796  0.229296  0.974786  1
  Li  Li10134  1  0.729296  0.268204  0.025214  1
  Li  Li10135  1  0.768204  0.770704  0.974786  1
  Li  Li10136  1  0.974786  0.770704  0.768204  1
  Li  Li10137  1  0.270704  0.525214  0.231796  1
  Li  Li10138  1  0.025214  0.229296  0.768204  1
  Li  Li10139  1  0.729296  0.474786  0.231796  1
  Li  Li10140  1  0.974786  0.229296  0.231796  1
  Li  Li10141  1  0.729296  0.525214  0.768204  1
  Li  Li10142  1  0.025214  0.770704  0.231796  1
  Li  Li10143  1  0.270704  0.474786  0.768204  1
  Li  Li10144  1  0.768204  0.474786  0.270704  1
  Li  Li10145  1  0.768204  0.525214  0.729296  1
  Li  Li10146  1  0.025214  0.731796  0.270704  1
  Li  Li10147  1  0.231796  0.474786  0.729296  1
  Li  Li10148  1  0.974786  0.268204  0.270704  1
  Li  Li10149  1  0.231796  0.525214  0.270704  1
  Li  Li10150  1  0.025214  0.268204  0.729296  1
  Li  Li10151  1  0.974786  0.731796  0.729296  1
  Li  Li10152  1  0.270704  0.768204  0.474786  1
  Li  Li10153  1  0.768204  0.729296  0.525214  1
  Li  Li10154  1  0.729296  0.231796  0.474786  1
  Li  Li10155  1  0.231796  0.270704  0.525214  1
  Li  Li10156  1  0.270704  0.231796  0.525214  1
  Li  Li10157  1  0.231796  0.729296  0.474786  1
  Li  Li10158  1  0.729296  0.768204  0.525214  1
  Li  Li10159  1  0.768204  0.270704  0.474786  1
  Li  Li10160  1  0.974786  0.270704  0.268204  1
  Li  Li10161  1  0.270704  0.025214  0.731796  1
  Li  Li10162  1  0.025214  0.729296  0.268204  1
  Li  Li10163  1  0.729296  0.974786  0.731796  1
  Li  Li10164  1  0.974786  0.729296  0.731796  1
  Li  Li10165  1  0.729296  0.025214  0.268204  1
  Li  Li10166  1  0.025214  0.270704  0.731796  1
  Li  Li10167  1  0.270704  0.974786  0.268204  1
  Li  Li10168  1  0.768204  0.974786  0.770704  1
  Li  Li10169  1  0.768204  0.025214  0.229296  1
  Li  Li10170  1  0.025214  0.231796  0.770704  1
  Li  Li10171  1  0.231796  0.974786  0.229296  1
  Li  Li10172  1  0.974786  0.768204  0.770704  1
  Li  Li10173  1  0.231796  0.025214  0.770704  1
  Li  Li10174  1  0.025214  0.768204  0.229296  1
  Li  Li10175  1  0.974786  0.231796  0.229296  1
  Li  Li10176  1  0.661757  0.456685  0.180815  1
  Li  Li10177  1  0.456685  0.338243  0.819185  1
  Li  Li10178  1  0.338243  0.543315  0.180815  1
  Li  Li10179  1  0.543315  0.661757  0.819185  1
  Li  Li10180  1  0.661757  0.543315  0.819185  1
  Li  Li10181  1  0.543315  0.338243  0.180815  1
  Li  Li10182  1  0.338243  0.456685  0.819185  1
  Li  Li10183  1  0.456685  0.661757  0.180815  1
  Li  Li10184  1  0.180815  0.661757  0.456685  1
  Li  Li10185  1  0.661757  0.819185  0.543315  1
  Li  Li10186  1  0.819185  0.338243  0.456685  1
  Li  Li10187  1  0.338243  0.180815  0.543315  1
  Li  Li10188  1  0.180815  0.338243  0.543315  1
  Li  Li10189  1  0.338243  0.819185  0.456685  1
  Li  Li10190  1  0.819185  0.661757  0.543315  1
  Li  Li10191  1  0.661757  0.180815  0.456685  1
  Li  Li10192  1  0.456685  0.180815  0.661757  1
  Li  Li10193  1  0.456685  0.819185  0.338243  1
  Li  Li10194  1  0.819185  0.543315  0.661757  1
  Li  Li10195  1  0.543315  0.180815  0.338243  1
  Li  Li10196  1  0.180815  0.456685  0.661757  1
  Li  Li10197  1  0.543315  0.819185  0.661757  1
  Li  Li10198  1  0.819185  0.456685  0.338243  1
  Li  Li10199  1  0.180815  0.543315  0.338243  1
  Li  Li10200  1  0.661757  0.956685  0.680815  1
  Li  Li10201  1  0.456685  0.838243  0.319185  1
  Li  Li10202  1  0.338243  0.043315  0.680815  1
  Li  Li10203  1  0.543315  0.161757  0.319185  1
  Li  Li10204  1  0.661757  0.043315  0.319185  1
  Li  Li10205  1  0.543315  0.838243  0.680815  1
  Li  Li10206  1  0.338243  0.956685  0.319185  1
  Li  Li10207  1  0.456685  0.161757  0.680815  1
  Li  Li10208  1  0.180815  0.161757  0.956685  1
  Li  Li10209  1  0.661757  0.319185  0.043315  1
  Li  Li10210  1  0.819185  0.838243  0.956685  1
  Li  Li10211  1  0.338243  0.680815  0.043315  1
  Li  Li10212  1  0.180815  0.838243  0.043315  1
  Li  Li10213  1  0.338243  0.319185  0.956685  1
  Li  Li10214  1  0.819185  0.161757  0.043315  1
  Li  Li10215  1  0.661757  0.680815  0.956685  1
  Li  Li10216  1  0.456685  0.680815  0.161757  1
  Li  Li10217  1  0.456685  0.319185  0.838243  1
  Li  Li10218  1  0.819185  0.043315  0.161757  1
  Li  Li10219  1  0.543315  0.680815  0.838243  1
  Li  Li10220  1  0.180815  0.956685  0.161757  1
  Li  Li10221  1  0.543315  0.319185  0.161757  1
  Li  Li10222  1  0.819185  0.956685  0.838243  1
  Li  Li10223  1  0.180815  0.043315  0.838243  1
  Li  Li10224  1  0.161757  0.456685  0.680815  1
  Li  Li10225  1  0.956685  0.338243  0.319185  1
  Li  Li10226  1  0.838243  0.543315  0.680815  1
  Li  Li10227  1  0.043315  0.661757  0.319185  1
  Li  Li10228  1  0.161757  0.543315  0.319185  1
  Li  Li10229  1  0.043315  0.338243  0.680815  1
  Li  Li10230  1  0.838243  0.456685  0.319185  1
  Li  Li10231  1  0.956685  0.661757  0.680815  1
  Li  Li10232  1  0.680815  0.661757  0.956685  1
  Li  Li10233  1  0.161757  0.819185  0.043315  1
  Li  Li10234  1  0.319185  0.338243  0.956685  1
  Li  Li10235  1  0.838243  0.180815  0.043315  1
  Li  Li10236  1  0.680815  0.338243  0.043315  1
  Li  Li10237  1  0.838243  0.819185  0.956685  1
  Li  Li10238  1  0.319185  0.661757  0.043315  1
  Li  Li10239  1  0.161757  0.180815  0.956685  1
  Li  Li10240  1  0.956685  0.180815  0.161757  1
  Li  Li10241  1  0.956685  0.819185  0.838243  1
  Li  Li10242  1  0.319185  0.543315  0.161757  1
  Li  Li10243  1  0.043315  0.180815  0.838243  1
  Li  Li10244  1  0.680815  0.456685  0.161757  1
  Li  Li10245  1  0.043315  0.819185  0.161757  1
  Li  Li10246  1  0.319185  0.456685  0.838243  1
  Li  Li10247  1  0.680815  0.543315  0.838243  1
  Li  Li10248  1  0.161757  0.956685  0.180815  1
  Li  Li10249  1  0.956685  0.838243  0.819185  1
  Li  Li10250  1  0.838243  0.043315  0.180815  1
  Li  Li10251  1  0.043315  0.161757  0.819185  1
  Li  Li10252  1  0.161757  0.043315  0.819185  1
  Li  Li10253  1  0.043315  0.838243  0.180815  1
  Li  Li10254  1  0.838243  0.956685  0.819185  1
  Li  Li10255  1  0.956685  0.161757  0.180815  1
  Li  Li10256  1  0.680815  0.161757  0.456685  1
  Li  Li10257  1  0.161757  0.319185  0.543315  1
  Li  Li10258  1  0.319185  0.838243  0.456685  1
  Li  Li10259  1  0.838243  0.680815  0.543315  1
  Li  Li10260  1  0.680815  0.838243  0.543315  1
  Li  Li10261  1  0.838243  0.319185  0.456685  1
  Li  Li10262  1  0.319185  0.161757  0.543315  1
  Li  Li10263  1  0.161757  0.680815  0.456685  1
  Li  Li10264  1  0.956685  0.680815  0.661757  1
  Li  Li10265  1  0.956685  0.319185  0.338243  1
  Li  Li10266  1  0.319185  0.043315  0.661757  1
  Li  Li10267  1  0.043315  0.680815  0.338243  1
  Li  Li10268  1  0.680815  0.956685  0.661757  1
  Li  Li10269  1  0.043315  0.319185  0.661757  1
  Li  Li10270  1  0.319185  0.956685  0.338243  1
  Li  Li10271  1  0.680815  0.043315  0.338243  1
  Li  Li10272  1  0.787647  0.479523  0.279847  1
  Li  Li10273  1  0.479523  0.212353  0.720153  1
  Li  Li10274  1  0.212353  0.520477  0.279847  1
  Li  Li10275  1  0.520477  0.787647  0.720153  1
  Li  Li10276  1  0.787647  0.520477  0.720153  1
  Li  Li10277  1  0.520477  0.212353  0.279847  1
  Li  Li10278  1  0.212353  0.479523  0.720153  1
  Li  Li10279  1  0.479523  0.787647  0.279847  1
  Li  Li10280  1  0.279847  0.787647  0.479523  1
  Li  Li10281  1  0.787647  0.720153  0.520477  1
  Li  Li10282  1  0.720153  0.212353  0.479523  1
  Li  Li10283  1  0.212353  0.279847  0.520477  1
  Li  Li10284  1  0.279847  0.212353  0.520477  1
  Li  Li10285  1  0.212353  0.720153  0.479523  1
  Li  Li10286  1  0.720153  0.787647  0.520477  1
  Li  Li10287  1  0.787647  0.279847  0.479523  1
  Li  Li10288  1  0.479523  0.279847  0.787647  1
  Li  Li10289  1  0.479523  0.720153  0.212353  1
  Li  Li10290  1  0.720153  0.520477  0.787647  1
  Li  Li10291  1  0.520477  0.279847  0.212353  1
  Li  Li10292  1  0.279847  0.479523  0.787647  1
  Li  Li10293  1  0.520477  0.720153  0.787647  1
  Li  Li10294  1  0.720153  0.479523  0.212353  1
  Li  Li10295  1  0.279847  0.520477  0.212353  1
  Li  Li10296  1  0.787647  0.979523  0.779847  1
  Li  Li10297  1  0.479523  0.712353  0.220153  1
  Li  Li10298  1  0.212353  0.020477  0.779847  1
  Li  Li10299  1  0.520477  0.287647  0.220153  1
  Li  Li10300  1  0.787647  0.020477  0.220153  1
  Li  Li10301  1  0.520477  0.712353  0.779847  1
  Li  Li10302  1  0.212353  0.979523  0.220153  1
  Li  Li10303  1  0.479523  0.287647  0.779847  1
  Li  Li10304  1  0.279847  0.287647  0.979523  1
  Li  Li10305  1  0.787647  0.220153  0.020477  1
  Li  Li10306  1  0.720153  0.712353  0.979523  1
  Li  Li10307  1  0.212353  0.779847  0.020477  1
  Li  Li10308  1  0.279847  0.712353  0.020477  1
  Li  Li10309  1  0.212353  0.220153  0.979523  1
  Li  Li10310  1  0.720153  0.287647  0.020477  1
  Li  Li10311  1  0.787647  0.779847  0.979523  1
  Li  Li10312  1  0.479523  0.779847  0.287647  1
  Li  Li10313  1  0.479523  0.220153  0.712353  1
  Li  Li10314  1  0.720153  0.020477  0.287647  1
  Li  Li10315  1  0.520477  0.779847  0.712353  1
  Li  Li10316  1  0.279847  0.979523  0.287647  1
  Li  Li10317  1  0.520477  0.220153  0.287647  1
  Li  Li10318  1  0.720153  0.979523  0.712353  1
  Li  Li10319  1  0.279847  0.020477  0.712353  1
  Li  Li10320  1  0.287647  0.479523  0.779847  1
  Li  Li10321  1  0.979523  0.212353  0.220153  1
  Li  Li10322  1  0.712353  0.520477  0.779847  1
  Li  Li10323  1  0.020477  0.787647  0.220153  1
  Li  Li10324  1  0.287647  0.520477  0.220153  1
  Li  Li10325  1  0.020477  0.212353  0.779847  1
  Li  Li10326  1  0.712353  0.479523  0.220153  1
  Li  Li10327  1  0.979523  0.787647  0.779847  1
  Li  Li10328  1  0.779847  0.787647  0.979523  1
  Li  Li10329  1  0.287647  0.720153  0.020477  1
  Li  Li10330  1  0.220153  0.212353  0.979523  1
  Li  Li10331  1  0.712353  0.279847  0.020477  1
  Li  Li10332  1  0.779847  0.212353  0.020477  1
  Li  Li10333  1  0.712353  0.720153  0.979523  1
  Li  Li10334  1  0.220153  0.787647  0.020477  1
  Li  Li10335  1  0.287647  0.279847  0.979523  1
  Li  Li10336  1  0.979523  0.279847  0.287647  1
  Li  Li10337  1  0.979523  0.720153  0.712353  1
  Li  Li10338  1  0.220153  0.520477  0.287647  1
  Li  Li10339  1  0.020477  0.279847  0.712353  1
  Li  Li10340  1  0.779847  0.479523  0.287647  1
  Li  Li10341  1  0.020477  0.720153  0.287647  1
  Li  Li10342  1  0.220153  0.479523  0.712353  1
  Li  Li10343  1  0.779847  0.520477  0.712353  1
  Li  Li10344  1  0.287647  0.979523  0.279847  1
  Li  Li10345  1  0.979523  0.712353  0.720153  1
  Li  Li10346  1  0.712353  0.020477  0.279847  1
  Li  Li10347  1  0.020477  0.287647  0.720153  1
  Li  Li10348  1  0.287647  0.020477  0.720153  1
  Li  Li10349  1  0.020477  0.712353  0.279847  1
  Li  Li10350  1  0.712353  0.979523  0.720153  1
  Li  Li10351  1  0.979523  0.287647  0.279847  1
  Li  Li10352  1  0.779847  0.287647  0.479523  1
  Li  Li10353  1  0.287647  0.220153  0.520477  1
  Li  Li10354  1  0.220153  0.712353  0.479523  1
  Li  Li10355  1  0.712353  0.779847  0.520477  1
  Li  Li10356  1  0.779847  0.712353  0.520477  1
  Li  Li10357  1  0.712353  0.220153  0.479523  1
  Li  Li10358  1  0.220153  0.287647  0.520477  1
  Li  Li10359  1  0.287647  0.779847  0.479523  1
  Li  Li10360  1  0.979523  0.779847  0.787647  1
  Li  Li10361  1  0.979523  0.220153  0.212353  1
  Li  Li10362  1  0.220153  0.020477  0.787647  1
  Li  Li10363  1  0.020477  0.779847  0.212353  1
  Li  Li10364  1  0.779847  0.979523  0.787647  1
  Li  Li10365  1  0.020477  0.220153  0.787647  1
  Li  Li10366  1  0.220153  0.979523  0.212353  1
  Li  Li10367  1  0.779847  0.020477  0.212353  1
  Li  Li10368  1  0.720608  0.019994  0.267974  1
  Li  Li10369  1  0.019994  0.279392  0.732026  1
  Li  Li10370  1  0.279392  0.980006  0.267974  1
  Li  Li10371  1  0.980006  0.720608  0.732026  1
  Li  Li10372  1  0.720608  0.980006  0.732026  1
  Li  Li10373  1  0.980006  0.279392  0.267974  1
  Li  Li10374  1  0.279392  0.019994  0.732026  1
  Li  Li10375  1  0.019994  0.720608  0.267974  1
  Li  Li10376  1  0.267974  0.720608  0.019994  1
  Li  Li10377  1  0.720608  0.732026  0.980006  1
  Li  Li10378  1  0.732026  0.279392  0.019994  1
  Li  Li10379  1  0.279392  0.267974  0.980006  1
  Li  Li10380  1  0.267974  0.279392  0.980006  1
  Li  Li10381  1  0.279392  0.732026  0.019994  1
  Li  Li10382  1  0.732026  0.720608  0.980006  1
  Li  Li10383  1  0.720608  0.267974  0.019994  1
  Li  Li10384  1  0.019994  0.267974  0.720608  1
  Li  Li10385  1  0.019994  0.732026  0.279392  1
  Li  Li10386  1  0.732026  0.980006  0.720608  1
  Li  Li10387  1  0.980006  0.267974  0.279392  1
  Li  Li10388  1  0.267974  0.019994  0.720608  1
  Li  Li10389  1  0.980006  0.732026  0.720608  1
  Li  Li10390  1  0.732026  0.019994  0.279392  1
  Li  Li10391  1  0.267974  0.980006  0.279392  1
  Li  Li10392  1  0.720608  0.519994  0.767974  1
  Li  Li10393  1  0.019994  0.779392  0.232026  1
  Li  Li10394  1  0.279392  0.480006  0.767974  1
  Li  Li10395  1  0.980006  0.220608  0.232026  1
  Li  Li10396  1  0.720608  0.480006  0.232026  1
  Li  Li10397  1  0.980006  0.779392  0.767974  1
  Li  Li10398  1  0.279392  0.519994  0.232026  1
  Li  Li10399  1  0.019994  0.220608  0.767974  1
  Li  Li10400  1  0.267974  0.220608  0.519994  1
  Li  Li10401  1  0.720608  0.232026  0.480006  1
  Li  Li10402  1  0.732026  0.779392  0.519994  1
  Li  Li10403  1  0.279392  0.767974  0.480006  1
  Li  Li10404  1  0.267974  0.779392  0.480006  1
  Li  Li10405  1  0.279392  0.232026  0.519994  1
  Li  Li10406  1  0.732026  0.220608  0.480006  1
  Li  Li10407  1  0.720608  0.767974  0.519994  1
  Li  Li10408  1  0.019994  0.767974  0.220608  1
  Li  Li10409  1  0.019994  0.232026  0.779392  1
  Li  Li10410  1  0.732026  0.480006  0.220608  1
  Li  Li10411  1  0.980006  0.767974  0.779392  1
  Li  Li10412  1  0.267974  0.519994  0.220608  1
  Li  Li10413  1  0.980006  0.232026  0.220608  1
  Li  Li10414  1  0.732026  0.519994  0.779392  1
  Li  Li10415  1  0.267974  0.480006  0.779392  1
  Li  Li10416  1  0.220608  0.019994  0.767974  1
  Li  Li10417  1  0.519994  0.279392  0.232026  1
  Li  Li10418  1  0.779392  0.980006  0.767974  1
  Li  Li10419  1  0.480006  0.720608  0.232026  1
  Li  Li10420  1  0.220608  0.980006  0.232026  1
  Li  Li10421  1  0.480006  0.279392  0.767974  1
  Li  Li10422  1  0.779392  0.019994  0.232026  1
  Li  Li10423  1  0.519994  0.720608  0.767974  1
  Li  Li10424  1  0.767974  0.720608  0.519994  1
  Li  Li10425  1  0.220608  0.732026  0.480006  1
  Li  Li10426  1  0.232026  0.279392  0.519994  1
  Li  Li10427  1  0.779392  0.267974  0.480006  1
  Li  Li10428  1  0.767974  0.279392  0.480006  1
  Li  Li10429  1  0.779392  0.732026  0.519994  1
  Li  Li10430  1  0.232026  0.720608  0.480006  1
  Li  Li10431  1  0.220608  0.267974  0.519994  1
  Li  Li10432  1  0.519994  0.267974  0.220608  1
  Li  Li10433  1  0.519994  0.732026  0.779392  1
  Li  Li10434  1  0.232026  0.980006  0.220608  1
  Li  Li10435  1  0.480006  0.267974  0.779392  1
  Li  Li10436  1  0.767974  0.019994  0.220608  1
  Li  Li10437  1  0.480006  0.732026  0.220608  1
  Li  Li10438  1  0.232026  0.019994  0.779392  1
  Li  Li10439  1  0.767974  0.980006  0.779392  1
  Li  Li10440  1  0.220608  0.519994  0.267974  1
  Li  Li10441  1  0.519994  0.779392  0.732026  1
  Li  Li10442  1  0.779392  0.480006  0.267974  1
  Li  Li10443  1  0.480006  0.220608  0.732026  1
  Li  Li10444  1  0.220608  0.480006  0.732026  1
  Li  Li10445  1  0.480006  0.779392  0.267974  1
  Li  Li10446  1  0.779392  0.519994  0.732026  1
  Li  Li10447  1  0.519994  0.220608  0.267974  1
  Li  Li10448  1  0.767974  0.220608  0.019994  1
  Li  Li10449  1  0.220608  0.232026  0.980006  1
  Li  Li10450  1  0.232026  0.779392  0.019994  1
  Li  Li10451  1  0.779392  0.767974  0.980006  1
  Li  Li10452  1  0.767974  0.779392  0.980006  1
  Li  Li10453  1  0.779392  0.232026  0.019994  1
  Li  Li10454  1  0.232026  0.220608  0.980006  1
  Li  Li10455  1  0.220608  0.767974  0.019994  1
  Li  Li10456  1  0.519994  0.767974  0.720608  1
  Li  Li10457  1  0.519994  0.232026  0.279392  1
  Li  Li10458  1  0.232026  0.480006  0.720608  1
  Li  Li10459  1  0.480006  0.767974  0.279392  1
  Li  Li10460  1  0.767974  0.519994  0.720608  1
  Li  Li10461  1  0.480006  0.232026  0.720608  1
  Li  Li10462  1  0.232026  0.519994  0.279392  1
  Li  Li10463  1  0.767974  0.480006  0.279392  1
  Li  Li10464  1  0.901297  0.080570  0.216735  1
  Li  Li10465  1  0.080570  0.098703  0.783265  1
  Li  Li10466  1  0.098703  0.919430  0.216735  1
  Li  Li10467  1  0.919430  0.901297  0.783265  1
  Li  Li10468  1  0.901297  0.919430  0.783265  1
  Li  Li10469  1  0.919430  0.098703  0.216735  1
  Li  Li10470  1  0.098703  0.080570  0.783265  1
  Li  Li10471  1  0.080570  0.901297  0.216735  1
  Li  Li10472  1  0.216735  0.901297  0.080570  1
  Li  Li10473  1  0.901297  0.783265  0.919430  1
  Li  Li10474  1  0.783265  0.098703  0.080570  1
  Li  Li10475  1  0.098703  0.216735  0.919430  1
  Li  Li10476  1  0.216735  0.098703  0.919430  1
  Li  Li10477  1  0.098703  0.783265  0.080570  1
  Li  Li10478  1  0.783265  0.901297  0.919430  1
  Li  Li10479  1  0.901297  0.216735  0.080570  1
  Li  Li10480  1  0.080570  0.216735  0.901297  1
  Li  Li10481  1  0.080570  0.783265  0.098703  1
  Li  Li10482  1  0.783265  0.919430  0.901297  1
  Li  Li10483  1  0.919430  0.216735  0.098703  1
  Li  Li10484  1  0.216735  0.080570  0.901297  1
  Li  Li10485  1  0.919430  0.783265  0.901297  1
  Li  Li10486  1  0.783265  0.080570  0.098703  1
  Li  Li10487  1  0.216735  0.919430  0.098703  1
  Li  Li10488  1  0.901297  0.580570  0.716735  1
  Li  Li10489  1  0.080570  0.598703  0.283265  1
  Li  Li10490  1  0.098703  0.419430  0.716735  1
  Li  Li10491  1  0.919430  0.401297  0.283265  1
  Li  Li10492  1  0.901297  0.419430  0.283265  1
  Li  Li10493  1  0.919430  0.598703  0.716735  1
  Li  Li10494  1  0.098703  0.580570  0.283265  1
  Li  Li10495  1  0.080570  0.401297  0.716735  1
  Li  Li10496  1  0.216735  0.401297  0.580570  1
  Li  Li10497  1  0.901297  0.283265  0.419430  1
  Li  Li10498  1  0.783265  0.598703  0.580570  1
  Li  Li10499  1  0.098703  0.716735  0.419430  1
  Li  Li10500  1  0.216735  0.598703  0.419430  1
  Li  Li10501  1  0.098703  0.283265  0.580570  1
  Li  Li10502  1  0.783265  0.401297  0.419430  1
  Li  Li10503  1  0.901297  0.716735  0.580570  1
  Li  Li10504  1  0.080570  0.716735  0.401297  1
  Li  Li10505  1  0.080570  0.283265  0.598703  1
  Li  Li10506  1  0.783265  0.419430  0.401297  1
  Li  Li10507  1  0.919430  0.716735  0.598703  1
  Li  Li10508  1  0.216735  0.580570  0.401297  1
  Li  Li10509  1  0.919430  0.283265  0.401297  1
  Li  Li10510  1  0.783265  0.580570  0.598703  1
  Li  Li10511  1  0.216735  0.419430  0.598703  1
  Li  Li10512  1  0.401297  0.080570  0.716735  1
  Li  Li10513  1  0.580570  0.098703  0.283265  1
  Li  Li10514  1  0.598703  0.919430  0.716735  1
  Li  Li10515  1  0.419430  0.901297  0.283265  1
  Li  Li10516  1  0.401297  0.919430  0.283265  1
  Li  Li10517  1  0.419430  0.098703  0.716735  1
  Li  Li10518  1  0.598703  0.080570  0.283265  1
  Li  Li10519  1  0.580570  0.901297  0.716735  1
  Li  Li10520  1  0.716735  0.901297  0.580570  1
  Li  Li10521  1  0.401297  0.783265  0.419430  1
  Li  Li10522  1  0.283265  0.098703  0.580570  1
  Li  Li10523  1  0.598703  0.216735  0.419430  1
  Li  Li10524  1  0.716735  0.098703  0.419430  1
  Li  Li10525  1  0.598703  0.783265  0.580570  1
  Li  Li10526  1  0.283265  0.901297  0.419430  1
  Li  Li10527  1  0.401297  0.216735  0.580570  1
  Li  Li10528  1  0.580570  0.216735  0.401297  1
  Li  Li10529  1  0.580570  0.783265  0.598703  1
  Li  Li10530  1  0.283265  0.919430  0.401297  1
  Li  Li10531  1  0.419430  0.216735  0.598703  1
  Li  Li10532  1  0.716735  0.080570  0.401297  1
  Li  Li10533  1  0.419430  0.783265  0.401297  1
  Li  Li10534  1  0.283265  0.080570  0.598703  1
  Li  Li10535  1  0.716735  0.919430  0.598703  1
  Li  Li10536  1  0.401297  0.580570  0.216735  1
  Li  Li10537  1  0.580570  0.598703  0.783265  1
  Li  Li10538  1  0.598703  0.419430  0.216735  1
  Li  Li10539  1  0.419430  0.401297  0.783265  1
  Li  Li10540  1  0.401297  0.419430  0.783265  1
  Li  Li10541  1  0.419430  0.598703  0.216735  1
  Li  Li10542  1  0.598703  0.580570  0.783265  1
  Li  Li10543  1  0.580570  0.401297  0.216735  1
  Li  Li10544  1  0.716735  0.401297  0.080570  1
  Li  Li10545  1  0.401297  0.283265  0.919430  1
  Li  Li10546  1  0.283265  0.598703  0.080570  1
  Li  Li10547  1  0.598703  0.716735  0.919430  1
  Li  Li10548  1  0.716735  0.598703  0.919430  1
  Li  Li10549  1  0.598703  0.283265  0.080570  1
  Li  Li10550  1  0.283265  0.401297  0.919430  1
  Li  Li10551  1  0.401297  0.716735  0.080570  1
  Li  Li10552  1  0.580570  0.716735  0.901297  1
  Li  Li10553  1  0.580570  0.283265  0.098703  1
  Li  Li10554  1  0.283265  0.419430  0.901297  1
  Li  Li10555  1  0.419430  0.716735  0.098703  1
  Li  Li10556  1  0.716735  0.580570  0.901297  1
  Li  Li10557  1  0.419430  0.283265  0.901297  1
  Li  Li10558  1  0.283265  0.580570  0.098703  1
  Li  Li10559  1  0.716735  0.419430  0.098703  1
  Li  Li10560  1  0.765753  0.309311  0.472096  1
  Li  Li10561  1  0.309311  0.234247  0.527904  1
  Li  Li10562  1  0.234247  0.690689  0.472096  1
  Li  Li10563  1  0.690689  0.765753  0.527904  1
  Li  Li10564  1  0.765753  0.690689  0.527904  1
  Li  Li10565  1  0.690689  0.234247  0.472096  1
  Li  Li10566  1  0.234247  0.309311  0.527904  1
  Li  Li10567  1  0.309311  0.765753  0.472096  1
  Li  Li10568  1  0.472096  0.765753  0.309311  1
  Li  Li10569  1  0.765753  0.527904  0.690689  1
  Li  Li10570  1  0.527904  0.234247  0.309311  1
  Li  Li10571  1  0.234247  0.472096  0.690689  1
  Li  Li10572  1  0.472096  0.234247  0.690689  1
  Li  Li10573  1  0.234247  0.527904  0.309311  1
  Li  Li10574  1  0.527904  0.765753  0.690689  1
  Li  Li10575  1  0.765753  0.472096  0.309311  1
  Li  Li10576  1  0.309311  0.472096  0.765753  1
  Li  Li10577  1  0.309311  0.527904  0.234247  1
  Li  Li10578  1  0.527904  0.690689  0.765753  1
  Li  Li10579  1  0.690689  0.472096  0.234247  1
  Li  Li10580  1  0.472096  0.309311  0.765753  1
  Li  Li10581  1  0.690689  0.527904  0.765753  1
  Li  Li10582  1  0.527904  0.309311  0.234247  1
  Li  Li10583  1  0.472096  0.690689  0.234247  1
  Li  Li10584  1  0.765753  0.809311  0.972096  1
  Li  Li10585  1  0.309311  0.734247  0.027904  1
  Li  Li10586  1  0.234247  0.190689  0.972096  1
  Li  Li10587  1  0.690689  0.265753  0.027904  1
  Li  Li10588  1  0.765753  0.190689  0.027904  1
  Li  Li10589  1  0.690689  0.734247  0.972096  1
  Li  Li10590  1  0.234247  0.809311  0.027904  1
  Li  Li10591  1  0.309311  0.265753  0.972096  1
  Li  Li10592  1  0.472096  0.265753  0.809311  1
  Li  Li10593  1  0.765753  0.027904  0.190689  1
  Li  Li10594  1  0.527904  0.734247  0.809311  1
  Li  Li10595  1  0.234247  0.972096  0.190689  1
  Li  Li10596  1  0.472096  0.734247  0.190689  1
  Li  Li10597  1  0.234247  0.027904  0.809311  1
  Li  Li10598  1  0.527904  0.265753  0.190689  1
  Li  Li10599  1  0.765753  0.972096  0.809311  1
  Li  Li10600  1  0.309311  0.972096  0.265753  1
  Li  Li10601  1  0.309311  0.027904  0.734247  1
  Li  Li10602  1  0.527904  0.190689  0.265753  1
  Li  Li10603  1  0.690689  0.972096  0.734247  1
  Li  Li10604  1  0.472096  0.809311  0.265753  1
  Li  Li10605  1  0.690689  0.027904  0.265753  1
  Li  Li10606  1  0.527904  0.809311  0.734247  1
  Li  Li10607  1  0.472096  0.190689  0.734247  1
  Li  Li10608  1  0.265753  0.309311  0.972096  1
  Li  Li10609  1  0.809311  0.234247  0.027904  1
  Li  Li10610  1  0.734247  0.690689  0.972096  1
  Li  Li10611  1  0.190689  0.765753  0.027904  1
  Li  Li10612  1  0.265753  0.690689  0.027904  1
  Li  Li10613  1  0.190689  0.234247  0.972096  1
  Li  Li10614  1  0.734247  0.309311  0.027904  1
  Li  Li10615  1  0.809311  0.765753  0.972096  1
  Li  Li10616  1  0.972096  0.765753  0.809311  1
  Li  Li10617  1  0.265753  0.527904  0.190689  1
  Li  Li10618  1  0.027904  0.234247  0.809311  1
  Li  Li10619  1  0.734247  0.472096  0.190689  1
  Li  Li10620  1  0.972096  0.234247  0.190689  1
  Li  Li10621  1  0.734247  0.527904  0.809311  1
  Li  Li10622  1  0.027904  0.765753  0.190689  1
  Li  Li10623  1  0.265753  0.472096  0.809311  1
  Li  Li10624  1  0.809311  0.472096  0.265753  1
  Li  Li10625  1  0.809311  0.527904  0.734247  1
  Li  Li10626  1  0.027904  0.690689  0.265753  1
  Li  Li10627  1  0.190689  0.472096  0.734247  1
  Li  Li10628  1  0.972096  0.309311  0.265753  1
  Li  Li10629  1  0.190689  0.527904  0.265753  1
  Li  Li10630  1  0.027904  0.309311  0.734247  1
  Li  Li10631  1  0.972096  0.690689  0.734247  1
  Li  Li10632  1  0.265753  0.809311  0.472096  1
  Li  Li10633  1  0.809311  0.734247  0.527904  1
  Li  Li10634  1  0.734247  0.190689  0.472096  1
  Li  Li10635  1  0.190689  0.265753  0.527904  1
  Li  Li10636  1  0.265753  0.190689  0.527904  1
  Li  Li10637  1  0.190689  0.734247  0.472096  1
  Li  Li10638  1  0.734247  0.809311  0.527904  1
  Li  Li10639  1  0.809311  0.265753  0.472096  1
  Li  Li10640  1  0.972096  0.265753  0.309311  1
  Li  Li10641  1  0.265753  0.027904  0.690689  1
  Li  Li10642  1  0.027904  0.734247  0.309311  1
  Li  Li10643  1  0.734247  0.972096  0.690689  1
  Li  Li10644  1  0.972096  0.734247  0.690689  1
  Li  Li10645  1  0.734247  0.027904  0.309311  1
  Li  Li10646  1  0.027904  0.265753  0.690689  1
  Li  Li10647  1  0.265753  0.972096  0.309311  1
  Li  Li10648  1  0.809311  0.972096  0.765753  1
  Li  Li10649  1  0.809311  0.027904  0.234247  1
  Li  Li10650  1  0.027904  0.190689  0.765753  1
  Li  Li10651  1  0.190689  0.972096  0.234247  1
  Li  Li10652  1  0.972096  0.809311  0.765753  1
  Li  Li10653  1  0.190689  0.027904  0.765753  1
  Li  Li10654  1  0.027904  0.809311  0.234247  1
  Li  Li10655  1  0.972096  0.190689  0.234247  1
  Li  Li10656  1  0.790263  0.487775  0.291405  1
  Li  Li10657  1  0.487775  0.209737  0.708595  1
  Li  Li10658  1  0.209737  0.512225  0.291405  1
  Li  Li10659  1  0.512225  0.790263  0.708595  1
  Li  Li10660  1  0.790263  0.512225  0.708595  1
  Li  Li10661  1  0.512225  0.209737  0.291405  1
  Li  Li10662  1  0.209737  0.487775  0.708595  1
  Li  Li10663  1  0.487775  0.790263  0.291405  1
  Li  Li10664  1  0.291405  0.790263  0.487775  1
  Li  Li10665  1  0.790263  0.708595  0.512225  1
  Li  Li10666  1  0.708595  0.209737  0.487775  1
  Li  Li10667  1  0.209737  0.291405  0.512225  1
  Li  Li10668  1  0.291405  0.209737  0.512225  1
  Li  Li10669  1  0.209737  0.708595  0.487775  1
  Li  Li10670  1  0.708595  0.790263  0.512225  1
  Li  Li10671  1  0.790263  0.291405  0.487775  1
  Li  Li10672  1  0.487775  0.291405  0.790263  1
  Li  Li10673  1  0.487775  0.708595  0.209737  1
  Li  Li10674  1  0.708595  0.512225  0.790263  1
  Li  Li10675  1  0.512225  0.291405  0.209737  1
  Li  Li10676  1  0.291405  0.487775  0.790263  1
  Li  Li10677  1  0.512225  0.708595  0.790263  1
  Li  Li10678  1  0.708595  0.487775  0.209737  1
  Li  Li10679  1  0.291405  0.512225  0.209737  1
  Li  Li10680  1  0.790263  0.987775  0.791405  1
  Li  Li10681  1  0.487775  0.709737  0.208595  1
  Li  Li10682  1  0.209737  0.012225  0.791405  1
  Li  Li10683  1  0.512225  0.290263  0.208595  1
  Li  Li10684  1  0.790263  0.012225  0.208595  1
  Li  Li10685  1  0.512225  0.709737  0.791405  1
  Li  Li10686  1  0.209737  0.987775  0.208595  1
  Li  Li10687  1  0.487775  0.290263  0.791405  1
  Li  Li10688  1  0.291405  0.290263  0.987775  1
  Li  Li10689  1  0.790263  0.208595  0.012225  1
  Li  Li10690  1  0.708595  0.709737  0.987775  1
  Li  Li10691  1  0.209737  0.791405  0.012225  1
  Li  Li10692  1  0.291405  0.709737  0.012225  1
  Li  Li10693  1  0.209737  0.208595  0.987775  1
  Li  Li10694  1  0.708595  0.290263  0.012225  1
  Li  Li10695  1  0.790263  0.791405  0.987775  1
  Li  Li10696  1  0.487775  0.791405  0.290263  1
  Li  Li10697  1  0.487775  0.208595  0.709737  1
  Li  Li10698  1  0.708595  0.012225  0.290263  1
  Li  Li10699  1  0.512225  0.791405  0.709737  1
  Li  Li10700  1  0.291405  0.987775  0.290263  1
  Li  Li10701  1  0.512225  0.208595  0.290263  1
  Li  Li10702  1  0.708595  0.987775  0.709737  1
  Li  Li10703  1  0.291405  0.012225  0.709737  1
  Li  Li10704  1  0.290263  0.487775  0.791405  1
  Li  Li10705  1  0.987775  0.209737  0.208595  1
  Li  Li10706  1  0.709737  0.512225  0.791405  1
  Li  Li10707  1  0.012225  0.790263  0.208595  1
  Li  Li10708  1  0.290263  0.512225  0.208595  1
  Li  Li10709  1  0.012225  0.209737  0.791405  1
  Li  Li10710  1  0.709737  0.487775  0.208595  1
  Li  Li10711  1  0.987775  0.790263  0.791405  1
  Li  Li10712  1  0.791405  0.790263  0.987775  1
  Li  Li10713  1  0.290263  0.708595  0.012225  1
  Li  Li10714  1  0.208595  0.209737  0.987775  1
  Li  Li10715  1  0.709737  0.291405  0.012225  1
  Li  Li10716  1  0.791405  0.209737  0.012225  1
  Li  Li10717  1  0.709737  0.708595  0.987775  1
  Li  Li10718  1  0.208595  0.790263  0.012225  1
  Li  Li10719  1  0.290263  0.291405  0.987775  1
  Li  Li10720  1  0.987775  0.291405  0.290263  1
  Li  Li10721  1  0.987775  0.708595  0.709737  1
  Li  Li10722  1  0.208595  0.512225  0.290263  1
  Li  Li10723  1  0.012225  0.291405  0.709737  1
  Li  Li10724  1  0.791405  0.487775  0.290263  1
  Li  Li10725  1  0.012225  0.708595  0.290263  1
  Li  Li10726  1  0.208595  0.487775  0.709737  1
  Li  Li10727  1  0.791405  0.512225  0.709737  1
  Li  Li10728  1  0.290263  0.987775  0.291405  1
  Li  Li10729  1  0.987775  0.709737  0.708595  1
  Li  Li10730  1  0.709737  0.012225  0.291405  1
  Li  Li10731  1  0.012225  0.290263  0.708595  1
  Li  Li10732  1  0.290263  0.012225  0.708595  1
  Li  Li10733  1  0.012225  0.709737  0.291405  1
  Li  Li10734  1  0.709737  0.987775  0.708595  1
  Li  Li10735  1  0.987775  0.290263  0.291405  1
  Li  Li10736  1  0.791405  0.290263  0.487775  1
  Li  Li10737  1  0.290263  0.208595  0.512225  1
  Li  Li10738  1  0.208595  0.709737  0.487775  1
  Li  Li10739  1  0.709737  0.791405  0.512225  1
  Li  Li10740  1  0.791405  0.709737  0.512225  1
  Li  Li10741  1  0.709737  0.208595  0.487775  1
  Li  Li10742  1  0.208595  0.290263  0.512225  1
  Li  Li10743  1  0.290263  0.791405  0.487775  1
  Li  Li10744  1  0.987775  0.791405  0.790263  1
  Li  Li10745  1  0.987775  0.208595  0.209737  1
  Li  Li10746  1  0.208595  0.012225  0.790263  1
  Li  Li10747  1  0.012225  0.791405  0.209737  1
  Li  Li10748  1  0.791405  0.987775  0.790263  1
  Li  Li10749  1  0.012225  0.208595  0.790263  1
  Li  Li10750  1  0.208595  0.987775  0.209737  1
  Li  Li10751  1  0.791405  0.012225  0.209737  1
  Li  Li10752  1  0.775677  0.421505  0.407835  1
  Li  Li10753  1  0.421505  0.224323  0.592165  1
  Li  Li10754  1  0.224323  0.578495  0.407835  1
  Li  Li10755  1  0.578495  0.775677  0.592165  1
  Li  Li10756  1  0.775677  0.578495  0.592165  1
  Li  Li10757  1  0.578495  0.224323  0.407835  1
  Li  Li10758  1  0.224323  0.421505  0.592165  1
  Li  Li10759  1  0.421505  0.775677  0.407835  1
  Li  Li10760  1  0.407835  0.775677  0.421505  1
  Li  Li10761  1  0.775677  0.592165  0.578495  1
  Li  Li10762  1  0.592165  0.224323  0.421505  1
  Li  Li10763  1  0.224323  0.407835  0.578495  1
  Li  Li10764  1  0.407835  0.224323  0.578495  1
  Li  Li10765  1  0.224323  0.592165  0.421505  1
  Li  Li10766  1  0.592165  0.775677  0.578495  1
  Li  Li10767  1  0.775677  0.407835  0.421505  1
  Li  Li10768  1  0.421505  0.407835  0.775677  1
  Li  Li10769  1  0.421505  0.592165  0.224323  1
  Li  Li10770  1  0.592165  0.578495  0.775677  1
  Li  Li10771  1  0.578495  0.407835  0.224323  1
  Li  Li10772  1  0.407835  0.421505  0.775677  1
  Li  Li10773  1  0.578495  0.592165  0.775677  1
  Li  Li10774  1  0.592165  0.421505  0.224323  1
  Li  Li10775  1  0.407835  0.578495  0.224323  1
  Li  Li10776  1  0.775677  0.921505  0.907835  1
  Li  Li10777  1  0.421505  0.724323  0.092165  1
  Li  Li10778  1  0.224323  0.078495  0.907835  1
  Li  Li10779  1  0.578495  0.275677  0.092165  1
  Li  Li10780  1  0.775677  0.078495  0.092165  1
  Li  Li10781  1  0.578495  0.724323  0.907835  1
  Li  Li10782  1  0.224323  0.921505  0.092165  1
  Li  Li10783  1  0.421505  0.275677  0.907835  1
  Li  Li10784  1  0.407835  0.275677  0.921505  1
  Li  Li10785  1  0.775677  0.092165  0.078495  1
  Li  Li10786  1  0.592165  0.724323  0.921505  1
  Li  Li10787  1  0.224323  0.907835  0.078495  1
  Li  Li10788  1  0.407835  0.724323  0.078495  1
  Li  Li10789  1  0.224323  0.092165  0.921505  1
  Li  Li10790  1  0.592165  0.275677  0.078495  1
  Li  Li10791  1  0.775677  0.907835  0.921505  1
  Li  Li10792  1  0.421505  0.907835  0.275677  1
  Li  Li10793  1  0.421505  0.092165  0.724323  1
  Li  Li10794  1  0.592165  0.078495  0.275677  1
  Li  Li10795  1  0.578495  0.907835  0.724323  1
  Li  Li10796  1  0.407835  0.921505  0.275677  1
  Li  Li10797  1  0.578495  0.092165  0.275677  1
  Li  Li10798  1  0.592165  0.921505  0.724323  1
  Li  Li10799  1  0.407835  0.078495  0.724323  1
  Li  Li10800  1  0.275677  0.421505  0.907835  1
  Li  Li10801  1  0.921505  0.224323  0.092165  1
  Li  Li10802  1  0.724323  0.578495  0.907835  1
  Li  Li10803  1  0.078495  0.775677  0.092165  1
  Li  Li10804  1  0.275677  0.578495  0.092165  1
  Li  Li10805  1  0.078495  0.224323  0.907835  1
  Li  Li10806  1  0.724323  0.421505  0.092165  1
  Li  Li10807  1  0.921505  0.775677  0.907835  1
  Li  Li10808  1  0.907835  0.775677  0.921505  1
  Li  Li10809  1  0.275677  0.592165  0.078495  1
  Li  Li10810  1  0.092165  0.224323  0.921505  1
  Li  Li10811  1  0.724323  0.407835  0.078495  1
  Li  Li10812  1  0.907835  0.224323  0.078495  1
  Li  Li10813  1  0.724323  0.592165  0.921505  1
  Li  Li10814  1  0.092165  0.775677  0.078495  1
  Li  Li10815  1  0.275677  0.407835  0.921505  1
  Li  Li10816  1  0.921505  0.407835  0.275677  1
  Li  Li10817  1  0.921505  0.592165  0.724323  1
  Li  Li10818  1  0.092165  0.578495  0.275677  1
  Li  Li10819  1  0.078495  0.407835  0.724323  1
  Li  Li10820  1  0.907835  0.421505  0.275677  1
  Li  Li10821  1  0.078495  0.592165  0.275677  1
  Li  Li10822  1  0.092165  0.421505  0.724323  1
  Li  Li10823  1  0.907835  0.578495  0.724323  1
  Li  Li10824  1  0.275677  0.921505  0.407835  1
  Li  Li10825  1  0.921505  0.724323  0.592165  1
  Li  Li10826  1  0.724323  0.078495  0.407835  1
  Li  Li10827  1  0.078495  0.275677  0.592165  1
  Li  Li10828  1  0.275677  0.078495  0.592165  1
  Li  Li10829  1  0.078495  0.724323  0.407835  1
  Li  Li10830  1  0.724323  0.921505  0.592165  1
  Li  Li10831  1  0.921505  0.275677  0.407835  1
  Li  Li10832  1  0.907835  0.275677  0.421505  1
  Li  Li10833  1  0.275677  0.092165  0.578495  1
  Li  Li10834  1  0.092165  0.724323  0.421505  1
  Li  Li10835  1  0.724323  0.907835  0.578495  1
  Li  Li10836  1  0.907835  0.724323  0.578495  1
  Li  Li10837  1  0.724323  0.092165  0.421505  1
  Li  Li10838  1  0.092165  0.275677  0.578495  1
  Li  Li10839  1  0.275677  0.907835  0.421505  1
  Li  Li10840  1  0.921505  0.907835  0.775677  1
  Li  Li10841  1  0.921505  0.092165  0.224323  1
  Li  Li10842  1  0.092165  0.078495  0.775677  1
  Li  Li10843  1  0.078495  0.907835  0.224323  1
  Li  Li10844  1  0.907835  0.921505  0.775677  1
  Li  Li10845  1  0.078495  0.092165  0.775677  1
  Li  Li10846  1  0.092165  0.921505  0.224323  1
  Li  Li10847  1  0.907835  0.078495  0.224323  1
  Li  Li10848  1  0.758344  0.478198  0.254980  1
  Li  Li10849  1  0.478198  0.241656  0.745020  1
  Li  Li10850  1  0.241656  0.521802  0.254980  1
  Li  Li10851  1  0.521802  0.758344  0.745020  1
  Li  Li10852  1  0.758344  0.521802  0.745020  1
  Li  Li10853  1  0.521802  0.241656  0.254980  1
  Li  Li10854  1  0.241656  0.478198  0.745020  1
  Li  Li10855  1  0.478198  0.758344  0.254980  1
  Li  Li10856  1  0.254980  0.758344  0.478198  1
  Li  Li10857  1  0.758344  0.745020  0.521802  1
  Li  Li10858  1  0.745020  0.241656  0.478198  1
  Li  Li10859  1  0.241656  0.254980  0.521802  1
  Li  Li10860  1  0.254980  0.241656  0.521802  1
  Li  Li10861  1  0.241656  0.745020  0.478198  1
  Li  Li10862  1  0.745020  0.758344  0.521802  1
  Li  Li10863  1  0.758344  0.254980  0.478198  1
  Li  Li10864  1  0.478198  0.254980  0.758344  1
  Li  Li10865  1  0.478198  0.745020  0.241656  1
  Li  Li10866  1  0.745020  0.521802  0.758344  1
  Li  Li10867  1  0.521802  0.254980  0.241656  1
  Li  Li10868  1  0.254980  0.478198  0.758344  1
  Li  Li10869  1  0.521802  0.745020  0.758344  1
  Li  Li10870  1  0.745020  0.478198  0.241656  1
  Li  Li10871  1  0.254980  0.521802  0.241656  1
  Li  Li10872  1  0.758344  0.978198  0.754980  1
  Li  Li10873  1  0.478198  0.741656  0.245020  1
  Li  Li10874  1  0.241656  0.021802  0.754980  1
  Li  Li10875  1  0.521802  0.258344  0.245020  1
  Li  Li10876  1  0.758344  0.021802  0.245020  1
  Li  Li10877  1  0.521802  0.741656  0.754980  1
  Li  Li10878  1  0.241656  0.978198  0.245020  1
  Li  Li10879  1  0.478198  0.258344  0.754980  1
  Li  Li10880  1  0.254980  0.258344  0.978198  1
  Li  Li10881  1  0.758344  0.245020  0.021802  1
  Li  Li10882  1  0.745020  0.741656  0.978198  1
  Li  Li10883  1  0.241656  0.754980  0.021802  1
  Li  Li10884  1  0.254980  0.741656  0.021802  1
  Li  Li10885  1  0.241656  0.245020  0.978198  1
  Li  Li10886  1  0.745020  0.258344  0.021802  1
  Li  Li10887  1  0.758344  0.754980  0.978198  1
  Li  Li10888  1  0.478198  0.754980  0.258344  1
  Li  Li10889  1  0.478198  0.245020  0.741656  1
  Li  Li10890  1  0.745020  0.021802  0.258344  1
  Li  Li10891  1  0.521802  0.754980  0.741656  1
  Li  Li10892  1  0.254980  0.978198  0.258344  1
  Li  Li10893  1  0.521802  0.245020  0.258344  1
  Li  Li10894  1  0.745020  0.978198  0.741656  1
  Li  Li10895  1  0.254980  0.021802  0.741656  1
  Li  Li10896  1  0.258344  0.478198  0.754980  1
  Li  Li10897  1  0.978198  0.241656  0.245020  1
  Li  Li10898  1  0.741656  0.521802  0.754980  1
  Li  Li10899  1  0.021802  0.758344  0.245020  1
  Li  Li10900  1  0.258344  0.521802  0.245020  1
  Li  Li10901  1  0.021802  0.241656  0.754980  1
  Li  Li10902  1  0.741656  0.478198  0.245020  1
  Li  Li10903  1  0.978198  0.758344  0.754980  1
  Li  Li10904  1  0.754980  0.758344  0.978198  1
  Li  Li10905  1  0.258344  0.745020  0.021802  1
  Li  Li10906  1  0.245020  0.241656  0.978198  1
  Li  Li10907  1  0.741656  0.254980  0.021802  1
  Li  Li10908  1  0.754980  0.241656  0.021802  1
  Li  Li10909  1  0.741656  0.745020  0.978198  1
  Li  Li10910  1  0.245020  0.758344  0.021802  1
  Li  Li10911  1  0.258344  0.254980  0.978198  1
  Li  Li10912  1  0.978198  0.254980  0.258344  1
  Li  Li10913  1  0.978198  0.745020  0.741656  1
  Li  Li10914  1  0.245020  0.521802  0.258344  1
  Li  Li10915  1  0.021802  0.254980  0.741656  1
  Li  Li10916  1  0.754980  0.478198  0.258344  1
  Li  Li10917  1  0.021802  0.745020  0.258344  1
  Li  Li10918  1  0.245020  0.478198  0.741656  1
  Li  Li10919  1  0.754980  0.521802  0.741656  1
  Li  Li10920  1  0.258344  0.978198  0.254980  1
  Li  Li10921  1  0.978198  0.741656  0.745020  1
  Li  Li10922  1  0.741656  0.021802  0.254980  1
  Li  Li10923  1  0.021802  0.258344  0.745020  1
  Li  Li10924  1  0.258344  0.021802  0.745020  1
  Li  Li10925  1  0.021802  0.741656  0.254980  1
  Li  Li10926  1  0.741656  0.978198  0.745020  1
  Li  Li10927  1  0.978198  0.258344  0.254980  1
  Li  Li10928  1  0.754980  0.258344  0.478198  1
  Li  Li10929  1  0.258344  0.245020  0.521802  1
  Li  Li10930  1  0.245020  0.741656  0.478198  1
  Li  Li10931  1  0.741656  0.754980  0.521802  1
  Li  Li10932  1  0.754980  0.741656  0.521802  1
  Li  Li10933  1  0.741656  0.245020  0.478198  1
  Li  Li10934  1  0.245020  0.258344  0.521802  1
  Li  Li10935  1  0.258344  0.754980  0.478198  1
  Li  Li10936  1  0.978198  0.754980  0.758344  1
  Li  Li10937  1  0.978198  0.245020  0.241656  1
  Li  Li10938  1  0.245020  0.021802  0.758344  1
  Li  Li10939  1  0.021802  0.754980  0.241656  1
  Li  Li10940  1  0.754980  0.978198  0.758344  1
  Li  Li10941  1  0.021802  0.245020  0.758344  1
  Li  Li10942  1  0.245020  0.978198  0.241656  1
  Li  Li10943  1  0.754980  0.021802  0.241656  1
  Li  Li10944  1  0.937042  0.411400  0.280601  1
  Li  Li10945  1  0.411400  0.062958  0.719399  1
  Li  Li10946  1  0.062958  0.588600  0.280601  1
  Li  Li10947  1  0.588600  0.937042  0.719399  1
  Li  Li10948  1  0.937042  0.588600  0.719399  1
  Li  Li10949  1  0.588600  0.062958  0.280601  1
  Li  Li10950  1  0.062958  0.411400  0.719399  1
  Li  Li10951  1  0.411400  0.937042  0.280601  1
  Li  Li10952  1  0.280601  0.937042  0.411400  1
  Li  Li10953  1  0.937042  0.719399  0.588600  1
  Li  Li10954  1  0.719399  0.062958  0.411400  1
  Li  Li10955  1  0.062958  0.280601  0.588600  1
  Li  Li10956  1  0.280601  0.062958  0.588600  1
  Li  Li10957  1  0.062958  0.719399  0.411400  1
  Li  Li10958  1  0.719399  0.937042  0.588600  1
  Li  Li10959  1  0.937042  0.280601  0.411400  1
  Li  Li10960  1  0.411400  0.280601  0.937042  1
  Li  Li10961  1  0.411400  0.719399  0.062958  1
  Li  Li10962  1  0.719399  0.588600  0.937042  1
  Li  Li10963  1  0.588600  0.280601  0.062958  1
  Li  Li10964  1  0.280601  0.411400  0.937042  1
  Li  Li10965  1  0.588600  0.719399  0.937042  1
  Li  Li10966  1  0.719399  0.411400  0.062958  1
  Li  Li10967  1  0.280601  0.588600  0.062958  1
  Li  Li10968  1  0.937042  0.911400  0.780601  1
  Li  Li10969  1  0.411400  0.562958  0.219399  1
  Li  Li10970  1  0.062958  0.088600  0.780601  1
  Li  Li10971  1  0.588600  0.437042  0.219399  1
  Li  Li10972  1  0.937042  0.088600  0.219399  1
  Li  Li10973  1  0.588600  0.562958  0.780601  1
  Li  Li10974  1  0.062958  0.911400  0.219399  1
  Li  Li10975  1  0.411400  0.437042  0.780601  1
  Li  Li10976  1  0.280601  0.437042  0.911400  1
  Li  Li10977  1  0.937042  0.219399  0.088600  1
  Li  Li10978  1  0.719399  0.562958  0.911400  1
  Li  Li10979  1  0.062958  0.780601  0.088600  1
  Li  Li10980  1  0.280601  0.562958  0.088600  1
  Li  Li10981  1  0.062958  0.219399  0.911400  1
  Li  Li10982  1  0.719399  0.437042  0.088600  1
  Li  Li10983  1  0.937042  0.780601  0.911400  1
  Li  Li10984  1  0.411400  0.780601  0.437042  1
  Li  Li10985  1  0.411400  0.219399  0.562958  1
  Li  Li10986  1  0.719399  0.088600  0.437042  1
  Li  Li10987  1  0.588600  0.780601  0.562958  1
  Li  Li10988  1  0.280601  0.911400  0.437042  1
  Li  Li10989  1  0.588600  0.219399  0.437042  1
  Li  Li10990  1  0.719399  0.911400  0.562958  1
  Li  Li10991  1  0.280601  0.088600  0.562958  1
  Li  Li10992  1  0.437042  0.411400  0.780601  1
  Li  Li10993  1  0.911400  0.062958  0.219399  1
  Li  Li10994  1  0.562958  0.588600  0.780601  1
  Li  Li10995  1  0.088600  0.937042  0.219399  1
  Li  Li10996  1  0.437042  0.588600  0.219399  1
  Li  Li10997  1  0.088600  0.062958  0.780601  1
  Li  Li10998  1  0.562958  0.411400  0.219399  1
  Li  Li10999  1  0.911400  0.937042  0.780601  1
  Li  Li11000  1  0.780601  0.937042  0.911400  1
  Li  Li11001  1  0.437042  0.719399  0.088600  1
  Li  Li11002  1  0.219399  0.062958  0.911400  1
  Li  Li11003  1  0.562958  0.280601  0.088600  1
  Li  Li11004  1  0.780601  0.062958  0.088600  1
  Li  Li11005  1  0.562958  0.719399  0.911400  1
  Li  Li11006  1  0.219399  0.937042  0.088600  1
  Li  Li11007  1  0.437042  0.280601  0.911400  1
  Li  Li11008  1  0.911400  0.280601  0.437042  1
  Li  Li11009  1  0.911400  0.719399  0.562958  1
  Li  Li11010  1  0.219399  0.588600  0.437042  1
  Li  Li11011  1  0.088600  0.280601  0.562958  1
  Li  Li11012  1  0.780601  0.411400  0.437042  1
  Li  Li11013  1  0.088600  0.719399  0.437042  1
  Li  Li11014  1  0.219399  0.411400  0.562958  1
  Li  Li11015  1  0.780601  0.588600  0.562958  1
  Li  Li11016  1  0.437042  0.911400  0.280601  1
  Li  Li11017  1  0.911400  0.562958  0.719399  1
  Li  Li11018  1  0.562958  0.088600  0.280601  1
  Li  Li11019  1  0.088600  0.437042  0.719399  1
  Li  Li11020  1  0.437042  0.088600  0.719399  1
  Li  Li11021  1  0.088600  0.562958  0.280601  1
  Li  Li11022  1  0.562958  0.911400  0.719399  1
  Li  Li11023  1  0.911400  0.437042  0.280601  1
  Li  Li11024  1  0.780601  0.437042  0.411400  1
  Li  Li11025  1  0.437042  0.219399  0.588600  1
  Li  Li11026  1  0.219399  0.562958  0.411400  1
  Li  Li11027  1  0.562958  0.780601  0.588600  1
  Li  Li11028  1  0.780601  0.562958  0.588600  1
  Li  Li11029  1  0.562958  0.219399  0.411400  1
  Li  Li11030  1  0.219399  0.437042  0.588600  1
  Li  Li11031  1  0.437042  0.780601  0.411400  1
  Li  Li11032  1  0.911400  0.780601  0.937042  1
  Li  Li11033  1  0.911400  0.219399  0.062958  1
  Li  Li11034  1  0.219399  0.088600  0.937042  1
  Li  Li11035  1  0.088600  0.780601  0.062958  1
  Li  Li11036  1  0.780601  0.911400  0.937042  1
  Li  Li11037  1  0.088600  0.219399  0.937042  1
  Li  Li11038  1  0.219399  0.911400  0.062958  1
  Li  Li11039  1  0.780601  0.088600  0.062958  1
  Li  Li11040  1  0.679616  0.306371  0.036976  1
  Li  Li11041  1  0.306371  0.320384  0.963024  1
  Li  Li11042  1  0.320384  0.693629  0.036976  1
  Li  Li11043  1  0.693629  0.679616  0.963024  1
  Li  Li11044  1  0.679616  0.693629  0.963024  1
  Li  Li11045  1  0.693629  0.320384  0.036976  1
  Li  Li11046  1  0.320384  0.306371  0.963024  1
  Li  Li11047  1  0.306371  0.679616  0.036976  1
  Li  Li11048  1  0.036976  0.679616  0.306371  1
  Li  Li11049  1  0.679616  0.963024  0.693629  1
  Li  Li11050  1  0.963024  0.320384  0.306371  1
  Li  Li11051  1  0.320384  0.036976  0.693629  1
  Li  Li11052  1  0.036976  0.320384  0.693629  1
  Li  Li11053  1  0.320384  0.963024  0.306371  1
  Li  Li11054  1  0.963024  0.679616  0.693629  1
  Li  Li11055  1  0.679616  0.036976  0.306371  1
  Li  Li11056  1  0.306371  0.036976  0.679616  1
  Li  Li11057  1  0.306371  0.963024  0.320384  1
  Li  Li11058  1  0.963024  0.693629  0.679616  1
  Li  Li11059  1  0.693629  0.036976  0.320384  1
  Li  Li11060  1  0.036976  0.306371  0.679616  1
  Li  Li11061  1  0.693629  0.963024  0.679616  1
  Li  Li11062  1  0.963024  0.306371  0.320384  1
  Li  Li11063  1  0.036976  0.693629  0.320384  1
  Li  Li11064  1  0.679616  0.806371  0.536976  1
  Li  Li11065  1  0.306371  0.820384  0.463024  1
  Li  Li11066  1  0.320384  0.193629  0.536976  1
  Li  Li11067  1  0.693629  0.179616  0.463024  1
  Li  Li11068  1  0.679616  0.193629  0.463024  1
  Li  Li11069  1  0.693629  0.820384  0.536976  1
  Li  Li11070  1  0.320384  0.806371  0.463024  1
  Li  Li11071  1  0.306371  0.179616  0.536976  1
  Li  Li11072  1  0.036976  0.179616  0.806371  1
  Li  Li11073  1  0.679616  0.463024  0.193629  1
  Li  Li11074  1  0.963024  0.820384  0.806371  1
  Li  Li11075  1  0.320384  0.536976  0.193629  1
  Li  Li11076  1  0.036976  0.820384  0.193629  1
  Li  Li11077  1  0.320384  0.463024  0.806371  1
  Li  Li11078  1  0.963024  0.179616  0.193629  1
  Li  Li11079  1  0.679616  0.536976  0.806371  1
  Li  Li11080  1  0.306371  0.536976  0.179616  1
  Li  Li11081  1  0.306371  0.463024  0.820384  1
  Li  Li11082  1  0.963024  0.193629  0.179616  1
  Li  Li11083  1  0.693629  0.536976  0.820384  1
  Li  Li11084  1  0.036976  0.806371  0.179616  1
  Li  Li11085  1  0.693629  0.463024  0.179616  1
  Li  Li11086  1  0.963024  0.806371  0.820384  1
  Li  Li11087  1  0.036976  0.193629  0.820384  1
  Li  Li11088  1  0.179616  0.306371  0.536976  1
  Li  Li11089  1  0.806371  0.320384  0.463024  1
  Li  Li11090  1  0.820384  0.693629  0.536976  1
  Li  Li11091  1  0.193629  0.679616  0.463024  1
  Li  Li11092  1  0.179616  0.693629  0.463024  1
  Li  Li11093  1  0.193629  0.320384  0.536976  1
  Li  Li11094  1  0.820384  0.306371  0.463024  1
  Li  Li11095  1  0.806371  0.679616  0.536976  1
  Li  Li11096  1  0.536976  0.679616  0.806371  1
  Li  Li11097  1  0.179616  0.963024  0.193629  1
  Li  Li11098  1  0.463024  0.320384  0.806371  1
  Li  Li11099  1  0.820384  0.036976  0.193629  1
  Li  Li11100  1  0.536976  0.320384  0.193629  1
  Li  Li11101  1  0.820384  0.963024  0.806371  1
  Li  Li11102  1  0.463024  0.679616  0.193629  1
  Li  Li11103  1  0.179616  0.036976  0.806371  1
  Li  Li11104  1  0.806371  0.036976  0.179616  1
  Li  Li11105  1  0.806371  0.963024  0.820384  1
  Li  Li11106  1  0.463024  0.693629  0.179616  1
  Li  Li11107  1  0.193629  0.036976  0.820384  1
  Li  Li11108  1  0.536976  0.306371  0.179616  1
  Li  Li11109  1  0.193629  0.963024  0.179616  1
  Li  Li11110  1  0.463024  0.306371  0.820384  1
  Li  Li11111  1  0.536976  0.693629  0.820384  1
  Li  Li11112  1  0.179616  0.806371  0.036976  1
  Li  Li11113  1  0.806371  0.820384  0.963024  1
  Li  Li11114  1  0.820384  0.193629  0.036976  1
  Li  Li11115  1  0.193629  0.179616  0.963024  1
  Li  Li11116  1  0.179616  0.193629  0.963024  1
  Li  Li11117  1  0.193629  0.820384  0.036976  1
  Li  Li11118  1  0.820384  0.806371  0.963024  1
  Li  Li11119  1  0.806371  0.179616  0.036976  1
  Li  Li11120  1  0.536976  0.179616  0.306371  1
  Li  Li11121  1  0.179616  0.463024  0.693629  1
  Li  Li11122  1  0.463024  0.820384  0.306371  1
  Li  Li11123  1  0.820384  0.536976  0.693629  1
  Li  Li11124  1  0.536976  0.820384  0.693629  1
  Li  Li11125  1  0.820384  0.463024  0.306371  1
  Li  Li11126  1  0.463024  0.179616  0.693629  1
  Li  Li11127  1  0.179616  0.536976  0.306371  1
  Li  Li11128  1  0.806371  0.536976  0.679616  1
  Li  Li11129  1  0.806371  0.463024  0.320384  1
  Li  Li11130  1  0.463024  0.193629  0.679616  1
  Li  Li11131  1  0.193629  0.536976  0.320384  1
  Li  Li11132  1  0.536976  0.806371  0.679616  1
  Li  Li11133  1  0.193629  0.463024  0.679616  1
  Li  Li11134  1  0.463024  0.806371  0.320384  1
  Li  Li11135  1  0.536976  0.193629  0.320384  1
  Li  Li11136  1  0.966208  0.205545  0.186437  1
  Li  Li11137  1  0.205545  0.033792  0.813563  1
  Li  Li11138  1  0.033792  0.794455  0.186437  1
  Li  Li11139  1  0.794455  0.966208  0.813563  1
  Li  Li11140  1  0.966208  0.794455  0.813563  1
  Li  Li11141  1  0.794455  0.033792  0.186437  1
  Li  Li11142  1  0.033792  0.205545  0.813563  1
  Li  Li11143  1  0.205545  0.966208  0.186437  1
  Li  Li11144  1  0.186437  0.966208  0.205545  1
  Li  Li11145  1  0.966208  0.813563  0.794455  1
  Li  Li11146  1  0.813563  0.033792  0.205545  1
  Li  Li11147  1  0.033792  0.186437  0.794455  1
  Li  Li11148  1  0.186437  0.033792  0.794455  1
  Li  Li11149  1  0.033792  0.813563  0.205545  1
  Li  Li11150  1  0.813563  0.966208  0.794455  1
  Li  Li11151  1  0.966208  0.186437  0.205545  1
  Li  Li11152  1  0.205545  0.186437  0.966208  1
  Li  Li11153  1  0.205545  0.813563  0.033792  1
  Li  Li11154  1  0.813563  0.794455  0.966208  1
  Li  Li11155  1  0.794455  0.186437  0.033792  1
  Li  Li11156  1  0.186437  0.205545  0.966208  1
  Li  Li11157  1  0.794455  0.813563  0.966208  1
  Li  Li11158  1  0.813563  0.205545  0.033792  1
  Li  Li11159  1  0.186437  0.794455  0.033792  1
  Li  Li11160  1  0.966208  0.705545  0.686437  1
  Li  Li11161  1  0.205545  0.533792  0.313563  1
  Li  Li11162  1  0.033792  0.294455  0.686437  1
  Li  Li11163  1  0.794455  0.466208  0.313563  1
  Li  Li11164  1  0.966208  0.294455  0.313563  1
  Li  Li11165  1  0.794455  0.533792  0.686437  1
  Li  Li11166  1  0.033792  0.705545  0.313563  1
  Li  Li11167  1  0.205545  0.466208  0.686437  1
  Li  Li11168  1  0.186437  0.466208  0.705545  1
  Li  Li11169  1  0.966208  0.313563  0.294455  1
  Li  Li11170  1  0.813563  0.533792  0.705545  1
  Li  Li11171  1  0.033792  0.686437  0.294455  1
  Li  Li11172  1  0.186437  0.533792  0.294455  1
  Li  Li11173  1  0.033792  0.313563  0.705545  1
  Li  Li11174  1  0.813563  0.466208  0.294455  1
  Li  Li11175  1  0.966208  0.686437  0.705545  1
  Li  Li11176  1  0.205545  0.686437  0.466208  1
  Li  Li11177  1  0.205545  0.313563  0.533792  1
  Li  Li11178  1  0.813563  0.294455  0.466208  1
  Li  Li11179  1  0.794455  0.686437  0.533792  1
  Li  Li11180  1  0.186437  0.705545  0.466208  1
  Li  Li11181  1  0.794455  0.313563  0.466208  1
  Li  Li11182  1  0.813563  0.705545  0.533792  1
  Li  Li11183  1  0.186437  0.294455  0.533792  1
  Li  Li11184  1  0.466208  0.205545  0.686437  1
  Li  Li11185  1  0.705545  0.033792  0.313563  1
  Li  Li11186  1  0.533792  0.794455  0.686437  1
  Li  Li11187  1  0.294455  0.966208  0.313563  1
  Li  Li11188  1  0.466208  0.794455  0.313563  1
  Li  Li11189  1  0.294455  0.033792  0.686437  1
  Li  Li11190  1  0.533792  0.205545  0.313563  1
  Li  Li11191  1  0.705545  0.966208  0.686437  1
  Li  Li11192  1  0.686437  0.966208  0.705545  1
  Li  Li11193  1  0.466208  0.813563  0.294455  1
  Li  Li11194  1  0.313563  0.033792  0.705545  1
  Li  Li11195  1  0.533792  0.186437  0.294455  1
  Li  Li11196  1  0.686437  0.033792  0.294455  1
  Li  Li11197  1  0.533792  0.813563  0.705545  1
  Li  Li11198  1  0.313563  0.966208  0.294455  1
  Li  Li11199  1  0.466208  0.186437  0.705545  1
  Li  Li11200  1  0.705545  0.186437  0.466208  1
  Li  Li11201  1  0.705545  0.813563  0.533792  1
  Li  Li11202  1  0.313563  0.794455  0.466208  1
  Li  Li11203  1  0.294455  0.186437  0.533792  1
  Li  Li11204  1  0.686437  0.205545  0.466208  1
  Li  Li11205  1  0.294455  0.813563  0.466208  1
  Li  Li11206  1  0.313563  0.205545  0.533792  1
  Li  Li11207  1  0.686437  0.794455  0.533792  1
  Li  Li11208  1  0.466208  0.705545  0.186437  1
  Li  Li11209  1  0.705545  0.533792  0.813563  1
  Li  Li11210  1  0.533792  0.294455  0.186437  1
  Li  Li11211  1  0.294455  0.466208  0.813563  1
  Li  Li11212  1  0.466208  0.294455  0.813563  1
  Li  Li11213  1  0.294455  0.533792  0.186437  1
  Li  Li11214  1  0.533792  0.705545  0.813563  1
  Li  Li11215  1  0.705545  0.466208  0.186437  1
  Li  Li11216  1  0.686437  0.466208  0.205545  1
  Li  Li11217  1  0.466208  0.313563  0.794455  1
  Li  Li11218  1  0.313563  0.533792  0.205545  1
  Li  Li11219  1  0.533792  0.686437  0.794455  1
  Li  Li11220  1  0.686437  0.533792  0.794455  1
  Li  Li11221  1  0.533792  0.313563  0.205545  1
  Li  Li11222  1  0.313563  0.466208  0.794455  1
  Li  Li11223  1  0.466208  0.686437  0.205545  1
  Li  Li11224  1  0.705545  0.686437  0.966208  1
  Li  Li11225  1  0.705545  0.313563  0.033792  1
  Li  Li11226  1  0.313563  0.294455  0.966208  1
  Li  Li11227  1  0.294455  0.686437  0.033792  1
  Li  Li11228  1  0.686437  0.705545  0.966208  1
  Li  Li11229  1  0.294455  0.313563  0.966208  1
  Li  Li11230  1  0.313563  0.705545  0.033792  1
  Li  Li11231  1  0.686437  0.294455  0.033792  1
  Li  Li11232  1  0.783971  0.282575  0.478151  1
  Li  Li11233  1  0.282575  0.216029  0.521849  1
  Li  Li11234  1  0.216029  0.717425  0.478151  1
  Li  Li11235  1  0.717425  0.783971  0.521849  1
  Li  Li11236  1  0.783971  0.717425  0.521849  1
  Li  Li11237  1  0.717425  0.216029  0.478151  1
  Li  Li11238  1  0.216029  0.282575  0.521849  1
  Li  Li11239  1  0.282575  0.783971  0.478151  1
  Li  Li11240  1  0.478151  0.783971  0.282575  1
  Li  Li11241  1  0.783971  0.521849  0.717425  1
  Li  Li11242  1  0.521849  0.216029  0.282575  1
  Li  Li11243  1  0.216029  0.478151  0.717425  1
  Li  Li11244  1  0.478151  0.216029  0.717425  1
  Li  Li11245  1  0.216029  0.521849  0.282575  1
  Li  Li11246  1  0.521849  0.783971  0.717425  1
  Li  Li11247  1  0.783971  0.478151  0.282575  1
  Li  Li11248  1  0.282575  0.478151  0.783971  1
  Li  Li11249  1  0.282575  0.521849  0.216029  1
  Li  Li11250  1  0.521849  0.717425  0.783971  1
  Li  Li11251  1  0.717425  0.478151  0.216029  1
  Li  Li11252  1  0.478151  0.282575  0.783971  1
  Li  Li11253  1  0.717425  0.521849  0.783971  1
  Li  Li11254  1  0.521849  0.282575  0.216029  1
  Li  Li11255  1  0.478151  0.717425  0.216029  1
  Li  Li11256  1  0.783971  0.782575  0.978151  1
  Li  Li11257  1  0.282575  0.716029  0.021849  1
  Li  Li11258  1  0.216029  0.217425  0.978151  1
  Li  Li11259  1  0.717425  0.283971  0.021849  1
  Li  Li11260  1  0.783971  0.217425  0.021849  1
  Li  Li11261  1  0.717425  0.716029  0.978151  1
  Li  Li11262  1  0.216029  0.782575  0.021849  1
  Li  Li11263  1  0.282575  0.283971  0.978151  1
  Li  Li11264  1  0.478151  0.283971  0.782575  1
  Li  Li11265  1  0.783971  0.021849  0.217425  1
  Li  Li11266  1  0.521849  0.716029  0.782575  1
  Li  Li11267  1  0.216029  0.978151  0.217425  1
  Li  Li11268  1  0.478151  0.716029  0.217425  1
  Li  Li11269  1  0.216029  0.021849  0.782575  1
  Li  Li11270  1  0.521849  0.283971  0.217425  1
  Li  Li11271  1  0.783971  0.978151  0.782575  1
  Li  Li11272  1  0.282575  0.978151  0.283971  1
  Li  Li11273  1  0.282575  0.021849  0.716029  1
  Li  Li11274  1  0.521849  0.217425  0.283971  1
  Li  Li11275  1  0.717425  0.978151  0.716029  1
  Li  Li11276  1  0.478151  0.782575  0.283971  1
  Li  Li11277  1  0.717425  0.021849  0.283971  1
  Li  Li11278  1  0.521849  0.782575  0.716029  1
  Li  Li11279  1  0.478151  0.217425  0.716029  1
  Li  Li11280  1  0.283971  0.282575  0.978151  1
  Li  Li11281  1  0.782575  0.216029  0.021849  1
  Li  Li11282  1  0.716029  0.717425  0.978151  1
  Li  Li11283  1  0.217425  0.783971  0.021849  1
  Li  Li11284  1  0.283971  0.717425  0.021849  1
  Li  Li11285  1  0.217425  0.216029  0.978151  1
  Li  Li11286  1  0.716029  0.282575  0.021849  1
  Li  Li11287  1  0.782575  0.783971  0.978151  1
  Li  Li11288  1  0.978151  0.783971  0.782575  1
  Li  Li11289  1  0.283971  0.521849  0.217425  1
  Li  Li11290  1  0.021849  0.216029  0.782575  1
  Li  Li11291  1  0.716029  0.478151  0.217425  1
  Li  Li11292  1  0.978151  0.216029  0.217425  1
  Li  Li11293  1  0.716029  0.521849  0.782575  1
  Li  Li11294  1  0.021849  0.783971  0.217425  1
  Li  Li11295  1  0.283971  0.478151  0.782575  1
  Li  Li11296  1  0.782575  0.478151  0.283971  1
  Li  Li11297  1  0.782575  0.521849  0.716029  1
  Li  Li11298  1  0.021849  0.717425  0.283971  1
  Li  Li11299  1  0.217425  0.478151  0.716029  1
  Li  Li11300  1  0.978151  0.282575  0.283971  1
  Li  Li11301  1  0.217425  0.521849  0.283971  1
  Li  Li11302  1  0.021849  0.282575  0.716029  1
  Li  Li11303  1  0.978151  0.717425  0.716029  1
  Li  Li11304  1  0.283971  0.782575  0.478151  1
  Li  Li11305  1  0.782575  0.716029  0.521849  1
  Li  Li11306  1  0.716029  0.217425  0.478151  1
  Li  Li11307  1  0.217425  0.283971  0.521849  1
  Li  Li11308  1  0.283971  0.217425  0.521849  1
  Li  Li11309  1  0.217425  0.716029  0.478151  1
  Li  Li11310  1  0.716029  0.782575  0.521849  1
  Li  Li11311  1  0.782575  0.283971  0.478151  1
  Li  Li11312  1  0.978151  0.283971  0.282575  1
  Li  Li11313  1  0.283971  0.021849  0.717425  1
  Li  Li11314  1  0.021849  0.716029  0.282575  1
  Li  Li11315  1  0.716029  0.978151  0.717425  1
  Li  Li11316  1  0.978151  0.716029  0.717425  1
  Li  Li11317  1  0.716029  0.021849  0.282575  1
  Li  Li11318  1  0.021849  0.283971  0.717425  1
  Li  Li11319  1  0.283971  0.978151  0.282575  1
  Li  Li11320  1  0.782575  0.978151  0.783971  1
  Li  Li11321  1  0.782575  0.021849  0.216029  1
  Li  Li11322  1  0.021849  0.217425  0.783971  1
  Li  Li11323  1  0.217425  0.978151  0.216029  1
  Li  Li11324  1  0.978151  0.782575  0.783971  1
  Li  Li11325  1  0.217425  0.021849  0.783971  1
  Li  Li11326  1  0.021849  0.782575  0.216029  1
  Li  Li11327  1  0.978151  0.217425  0.216029  1
  Li  Li11328  1  0.721819  0.488218  0.200663  1
  Li  Li11329  1  0.488218  0.278181  0.799337  1
  Li  Li11330  1  0.278181  0.511782  0.200663  1
  Li  Li11331  1  0.511782  0.721819  0.799337  1
  Li  Li11332  1  0.721819  0.511782  0.799337  1
  Li  Li11333  1  0.511782  0.278181  0.200663  1
  Li  Li11334  1  0.278181  0.488218  0.799337  1
  Li  Li11335  1  0.488218  0.721819  0.200663  1
  Li  Li11336  1  0.200663  0.721819  0.488218  1
  Li  Li11337  1  0.721819  0.799337  0.511782  1
  Li  Li11338  1  0.799337  0.278181  0.488218  1
  Li  Li11339  1  0.278181  0.200663  0.511782  1
  Li  Li11340  1  0.200663  0.278181  0.511782  1
  Li  Li11341  1  0.278181  0.799337  0.488218  1
  Li  Li11342  1  0.799337  0.721819  0.511782  1
  Li  Li11343  1  0.721819  0.200663  0.488218  1
  Li  Li11344  1  0.488218  0.200663  0.721819  1
  Li  Li11345  1  0.488218  0.799337  0.278181  1
  Li  Li11346  1  0.799337  0.511782  0.721819  1
  Li  Li11347  1  0.511782  0.200663  0.278181  1
  Li  Li11348  1  0.200663  0.488218  0.721819  1
  Li  Li11349  1  0.511782  0.799337  0.721819  1
  Li  Li11350  1  0.799337  0.488218  0.278181  1
  Li  Li11351  1  0.200663  0.511782  0.278181  1
  Li  Li11352  1  0.721819  0.988218  0.700663  1
  Li  Li11353  1  0.488218  0.778181  0.299337  1
  Li  Li11354  1  0.278181  0.011782  0.700663  1
  Li  Li11355  1  0.511782  0.221819  0.299337  1
  Li  Li11356  1  0.721819  0.011782  0.299337  1
  Li  Li11357  1  0.511782  0.778181  0.700663  1
  Li  Li11358  1  0.278181  0.988218  0.299337  1
  Li  Li11359  1  0.488218  0.221819  0.700663  1
  Li  Li11360  1  0.200663  0.221819  0.988218  1
  Li  Li11361  1  0.721819  0.299337  0.011782  1
  Li  Li11362  1  0.799337  0.778181  0.988218  1
  Li  Li11363  1  0.278181  0.700663  0.011782  1
  Li  Li11364  1  0.200663  0.778181  0.011782  1
  Li  Li11365  1  0.278181  0.299337  0.988218  1
  Li  Li11366  1  0.799337  0.221819  0.011782  1
  Li  Li11367  1  0.721819  0.700663  0.988218  1
  Li  Li11368  1  0.488218  0.700663  0.221819  1
  Li  Li11369  1  0.488218  0.299337  0.778181  1
  Li  Li11370  1  0.799337  0.011782  0.221819  1
  Li  Li11371  1  0.511782  0.700663  0.778181  1
  Li  Li11372  1  0.200663  0.988218  0.221819  1
  Li  Li11373  1  0.511782  0.299337  0.221819  1
  Li  Li11374  1  0.799337  0.988218  0.778181  1
  Li  Li11375  1  0.200663  0.011782  0.778181  1
  Li  Li11376  1  0.221819  0.488218  0.700663  1
  Li  Li11377  1  0.988218  0.278181  0.299337  1
  Li  Li11378  1  0.778181  0.511782  0.700663  1
  Li  Li11379  1  0.011782  0.721819  0.299337  1
  Li  Li11380  1  0.221819  0.511782  0.299337  1
  Li  Li11381  1  0.011782  0.278181  0.700663  1
  Li  Li11382  1  0.778181  0.488218  0.299337  1
  Li  Li11383  1  0.988218  0.721819  0.700663  1
  Li  Li11384  1  0.700663  0.721819  0.988218  1
  Li  Li11385  1  0.221819  0.799337  0.011782  1
  Li  Li11386  1  0.299337  0.278181  0.988218  1
  Li  Li11387  1  0.778181  0.200663  0.011782  1
  Li  Li11388  1  0.700663  0.278181  0.011782  1
  Li  Li11389  1  0.778181  0.799337  0.988218  1
  Li  Li11390  1  0.299337  0.721819  0.011782  1
  Li  Li11391  1  0.221819  0.200663  0.988218  1
  Li  Li11392  1  0.988218  0.200663  0.221819  1
  Li  Li11393  1  0.988218  0.799337  0.778181  1
  Li  Li11394  1  0.299337  0.511782  0.221819  1
  Li  Li11395  1  0.011782  0.200663  0.778181  1
  Li  Li11396  1  0.700663  0.488218  0.221819  1
  Li  Li11397  1  0.011782  0.799337  0.221819  1
  Li  Li11398  1  0.299337  0.488218  0.778181  1
  Li  Li11399  1  0.700663  0.511782  0.778181  1
  Li  Li11400  1  0.221819  0.988218  0.200663  1
  Li  Li11401  1  0.988218  0.778181  0.799337  1
  Li  Li11402  1  0.778181  0.011782  0.200663  1
  Li  Li11403  1  0.011782  0.221819  0.799337  1
  Li  Li11404  1  0.221819  0.011782  0.799337  1
  Li  Li11405  1  0.011782  0.778181  0.200663  1
  Li  Li11406  1  0.778181  0.988218  0.799337  1
  Li  Li11407  1  0.988218  0.221819  0.200663  1
  Li  Li11408  1  0.700663  0.221819  0.488218  1
  Li  Li11409  1  0.221819  0.299337  0.511782  1
  Li  Li11410  1  0.299337  0.778181  0.488218  1
  Li  Li11411  1  0.778181  0.700663  0.511782  1
  Li  Li11412  1  0.700663  0.778181  0.511782  1
  Li  Li11413  1  0.778181  0.299337  0.488218  1
  Li  Li11414  1  0.299337  0.221819  0.511782  1
  Li  Li11415  1  0.221819  0.700663  0.488218  1
  Li  Li11416  1  0.988218  0.700663  0.721819  1
  Li  Li11417  1  0.988218  0.299337  0.278181  1
  Li  Li11418  1  0.299337  0.011782  0.721819  1
  Li  Li11419  1  0.011782  0.700663  0.278181  1
  Li  Li11420  1  0.700663  0.988218  0.721819  1
  Li  Li11421  1  0.011782  0.299337  0.721819  1
  Li  Li11422  1  0.299337  0.988218  0.278181  1
  Li  Li11423  1  0.700663  0.011782  0.278181  1
  Li  Li11424  1  0.594884  0.251116  0.416660  1
  Li  Li11425  1  0.251116  0.405116  0.583340  1
  Li  Li11426  1  0.405116  0.748884  0.416660  1
  Li  Li11427  1  0.748884  0.594884  0.583340  1
  Li  Li11428  1  0.594884  0.748884  0.583340  1
  Li  Li11429  1  0.748884  0.405116  0.416660  1
  Li  Li11430  1  0.405116  0.251116  0.583340  1
  Li  Li11431  1  0.251116  0.594884  0.416660  1
  Li  Li11432  1  0.416660  0.594884  0.251116  1
  Li  Li11433  1  0.594884  0.583340  0.748884  1
  Li  Li11434  1  0.583340  0.405116  0.251116  1
  Li  Li11435  1  0.405116  0.416660  0.748884  1
  Li  Li11436  1  0.416660  0.405116  0.748884  1
  Li  Li11437  1  0.405116  0.583340  0.251116  1
  Li  Li11438  1  0.583340  0.594884  0.748884  1
  Li  Li11439  1  0.594884  0.416660  0.251116  1
  Li  Li11440  1  0.251116  0.416660  0.594884  1
  Li  Li11441  1  0.251116  0.583340  0.405116  1
  Li  Li11442  1  0.583340  0.748884  0.594884  1
  Li  Li11443  1  0.748884  0.416660  0.405116  1
  Li  Li11444  1  0.416660  0.251116  0.594884  1
  Li  Li11445  1  0.748884  0.583340  0.594884  1
  Li  Li11446  1  0.583340  0.251116  0.405116  1
  Li  Li11447  1  0.416660  0.748884  0.405116  1
  Li  Li11448  1  0.594884  0.751116  0.916660  1
  Li  Li11449  1  0.251116  0.905116  0.083340  1
  Li  Li11450  1  0.405116  0.248884  0.916660  1
  Li  Li11451  1  0.748884  0.094884  0.083340  1
  Li  Li11452  1  0.594884  0.248884  0.083340  1
  Li  Li11453  1  0.748884  0.905116  0.916660  1
  Li  Li11454  1  0.405116  0.751116  0.083340  1
  Li  Li11455  1  0.251116  0.094884  0.916660  1
  Li  Li11456  1  0.416660  0.094884  0.751116  1
  Li  Li11457  1  0.594884  0.083340  0.248884  1
  Li  Li11458  1  0.583340  0.905116  0.751116  1
  Li  Li11459  1  0.405116  0.916660  0.248884  1
  Li  Li11460  1  0.416660  0.905116  0.248884  1
  Li  Li11461  1  0.405116  0.083340  0.751116  1
  Li  Li11462  1  0.583340  0.094884  0.248884  1
  Li  Li11463  1  0.594884  0.916660  0.751116  1
  Li  Li11464  1  0.251116  0.916660  0.094884  1
  Li  Li11465  1  0.251116  0.083340  0.905116  1
  Li  Li11466  1  0.583340  0.248884  0.094884  1
  Li  Li11467  1  0.748884  0.916660  0.905116  1
  Li  Li11468  1  0.416660  0.751116  0.094884  1
  Li  Li11469  1  0.748884  0.083340  0.094884  1
  Li  Li11470  1  0.583340  0.751116  0.905116  1
  Li  Li11471  1  0.416660  0.248884  0.905116  1
  Li  Li11472  1  0.094884  0.251116  0.916660  1
  Li  Li11473  1  0.751116  0.405116  0.083340  1
  Li  Li11474  1  0.905116  0.748884  0.916660  1
  Li  Li11475  1  0.248884  0.594884  0.083340  1
  Li  Li11476  1  0.094884  0.748884  0.083340  1
  Li  Li11477  1  0.248884  0.405116  0.916660  1
  Li  Li11478  1  0.905116  0.251116  0.083340  1
  Li  Li11479  1  0.751116  0.594884  0.916660  1
  Li  Li11480  1  0.916660  0.594884  0.751116  1
  Li  Li11481  1  0.094884  0.583340  0.248884  1
  Li  Li11482  1  0.083340  0.405116  0.751116  1
  Li  Li11483  1  0.905116  0.416660  0.248884  1
  Li  Li11484  1  0.916660  0.405116  0.248884  1
  Li  Li11485  1  0.905116  0.583340  0.751116  1
  Li  Li11486  1  0.083340  0.594884  0.248884  1
  Li  Li11487  1  0.094884  0.416660  0.751116  1
  Li  Li11488  1  0.751116  0.416660  0.094884  1
  Li  Li11489  1  0.751116  0.583340  0.905116  1
  Li  Li11490  1  0.083340  0.748884  0.094884  1
  Li  Li11491  1  0.248884  0.416660  0.905116  1
  Li  Li11492  1  0.916660  0.251116  0.094884  1
  Li  Li11493  1  0.248884  0.583340  0.094884  1
  Li  Li11494  1  0.083340  0.251116  0.905116  1
  Li  Li11495  1  0.916660  0.748884  0.905116  1
  Li  Li11496  1  0.094884  0.751116  0.416660  1
  Li  Li11497  1  0.751116  0.905116  0.583340  1
  Li  Li11498  1  0.905116  0.248884  0.416660  1
  Li  Li11499  1  0.248884  0.094884  0.583340  1
  Li  Li11500  1  0.094884  0.248884  0.583340  1
  Li  Li11501  1  0.248884  0.905116  0.416660  1
  Li  Li11502  1  0.905116  0.751116  0.583340  1
  Li  Li11503  1  0.751116  0.094884  0.416660  1
  Li  Li11504  1  0.916660  0.094884  0.251116  1
  Li  Li11505  1  0.094884  0.083340  0.748884  1
  Li  Li11506  1  0.083340  0.905116  0.251116  1
  Li  Li11507  1  0.905116  0.916660  0.748884  1
  Li  Li11508  1  0.916660  0.905116  0.748884  1
  Li  Li11509  1  0.905116  0.083340  0.251116  1
  Li  Li11510  1  0.083340  0.094884  0.748884  1
  Li  Li11511  1  0.094884  0.916660  0.251116  1
  Li  Li11512  1  0.751116  0.916660  0.594884  1
  Li  Li11513  1  0.751116  0.083340  0.405116  1
  Li  Li11514  1  0.083340  0.248884  0.594884  1
  Li  Li11515  1  0.248884  0.916660  0.405116  1
  Li  Li11516  1  0.916660  0.751116  0.594884  1
  Li  Li11517  1  0.248884  0.083340  0.594884  1
  Li  Li11518  1  0.083340  0.751116  0.405116  1
  Li  Li11519  1  0.916660  0.248884  0.405116  1
  Li  Li11520  1  0.528899  0.243538  0.253912  1
  Li  Li11521  1  0.243538  0.471101  0.746088  1
  Li  Li11522  1  0.471101  0.756462  0.253912  1
  Li  Li11523  1  0.756462  0.528899  0.746088  1
  Li  Li11524  1  0.528899  0.756462  0.746088  1
  Li  Li11525  1  0.756462  0.471101  0.253912  1
  Li  Li11526  1  0.471101  0.243538  0.746088  1
  Li  Li11527  1  0.243538  0.528899  0.253912  1
  Li  Li11528  1  0.253912  0.528899  0.243538  1
  Li  Li11529  1  0.528899  0.746088  0.756462  1
  Li  Li11530  1  0.746088  0.471101  0.243538  1
  Li  Li11531  1  0.471101  0.253912  0.756462  1
  Li  Li11532  1  0.253912  0.471101  0.756462  1
  Li  Li11533  1  0.471101  0.746088  0.243538  1
  Li  Li11534  1  0.746088  0.528899  0.756462  1
  Li  Li11535  1  0.528899  0.253912  0.243538  1
  Li  Li11536  1  0.243538  0.253912  0.528899  1
  Li  Li11537  1  0.243538  0.746088  0.471101  1
  Li  Li11538  1  0.746088  0.756462  0.528899  1
  Li  Li11539  1  0.756462  0.253912  0.471101  1
  Li  Li11540  1  0.253912  0.243538  0.528899  1
  Li  Li11541  1  0.756462  0.746088  0.528899  1
  Li  Li11542  1  0.746088  0.243538  0.471101  1
  Li  Li11543  1  0.253912  0.756462  0.471101  1
  Li  Li11544  1  0.528899  0.743538  0.753912  1
  Li  Li11545  1  0.243538  0.971101  0.246088  1
  Li  Li11546  1  0.471101  0.256462  0.753912  1
  Li  Li11547  1  0.756462  0.028899  0.246088  1
  Li  Li11548  1  0.528899  0.256462  0.246088  1
  Li  Li11549  1  0.756462  0.971101  0.753912  1
  Li  Li11550  1  0.471101  0.743538  0.246088  1
  Li  Li11551  1  0.243538  0.028899  0.753912  1
  Li  Li11552  1  0.253912  0.028899  0.743538  1
  Li  Li11553  1  0.528899  0.246088  0.256462  1
  Li  Li11554  1  0.746088  0.971101  0.743538  1
  Li  Li11555  1  0.471101  0.753912  0.256462  1
  Li  Li11556  1  0.253912  0.971101  0.256462  1
  Li  Li11557  1  0.471101  0.246088  0.743538  1
  Li  Li11558  1  0.746088  0.028899  0.256462  1
  Li  Li11559  1  0.528899  0.753912  0.743538  1
  Li  Li11560  1  0.243538  0.753912  0.028899  1
  Li  Li11561  1  0.243538  0.246088  0.971101  1
  Li  Li11562  1  0.746088  0.256462  0.028899  1
  Li  Li11563  1  0.756462  0.753912  0.971101  1
  Li  Li11564  1  0.253912  0.743538  0.028899  1
  Li  Li11565  1  0.756462  0.246088  0.028899  1
  Li  Li11566  1  0.746088  0.743538  0.971101  1
  Li  Li11567  1  0.253912  0.256462  0.971101  1
  Li  Li11568  1  0.028899  0.243538  0.753912  1
  Li  Li11569  1  0.743538  0.471101  0.246088  1
  Li  Li11570  1  0.971101  0.756462  0.753912  1
  Li  Li11571  1  0.256462  0.528899  0.246088  1
  Li  Li11572  1  0.028899  0.756462  0.246088  1
  Li  Li11573  1  0.256462  0.471101  0.753912  1
  Li  Li11574  1  0.971101  0.243538  0.246088  1
  Li  Li11575  1  0.743538  0.528899  0.753912  1
  Li  Li11576  1  0.753912  0.528899  0.743538  1
  Li  Li11577  1  0.028899  0.746088  0.256462  1
  Li  Li11578  1  0.246088  0.471101  0.743538  1
  Li  Li11579  1  0.971101  0.253912  0.256462  1
  Li  Li11580  1  0.753912  0.471101  0.256462  1
  Li  Li11581  1  0.971101  0.746088  0.743538  1
  Li  Li11582  1  0.246088  0.528899  0.256462  1
  Li  Li11583  1  0.028899  0.253912  0.743538  1
  Li  Li11584  1  0.743538  0.253912  0.028899  1
  Li  Li11585  1  0.743538  0.746088  0.971101  1
  Li  Li11586  1  0.246088  0.756462  0.028899  1
  Li  Li11587  1  0.256462  0.253912  0.971101  1
  Li  Li11588  1  0.753912  0.243538  0.028899  1
  Li  Li11589  1  0.256462  0.746088  0.028899  1
  Li  Li11590  1  0.246088  0.243538  0.971101  1
  Li  Li11591  1  0.753912  0.756462  0.971101  1
  Li  Li11592  1  0.028899  0.743538  0.253912  1
  Li  Li11593  1  0.743538  0.971101  0.746088  1
  Li  Li11594  1  0.971101  0.256462  0.253912  1
  Li  Li11595  1  0.256462  0.028899  0.746088  1
  Li  Li11596  1  0.028899  0.256462  0.746088  1
  Li  Li11597  1  0.256462  0.971101  0.253912  1
  Li  Li11598  1  0.971101  0.743538  0.746088  1
  Li  Li11599  1  0.743538  0.028899  0.253912  1
  Li  Li11600  1  0.753912  0.028899  0.243538  1
  Li  Li11601  1  0.028899  0.246088  0.756462  1
  Li  Li11602  1  0.246088  0.971101  0.243538  1
  Li  Li11603  1  0.971101  0.753912  0.756462  1
  Li  Li11604  1  0.753912  0.971101  0.756462  1
  Li  Li11605  1  0.971101  0.246088  0.243538  1
  Li  Li11606  1  0.246088  0.028899  0.756462  1
  Li  Li11607  1  0.028899  0.753912  0.243538  1
  Li  Li11608  1  0.743538  0.753912  0.528899  1
  Li  Li11609  1  0.743538  0.246088  0.471101  1
  Li  Li11610  1  0.246088  0.256462  0.528899  1
  Li  Li11611  1  0.256462  0.753912  0.471101  1
  Li  Li11612  1  0.753912  0.743538  0.528899  1
  Li  Li11613  1  0.256462  0.246088  0.528899  1
  Li  Li11614  1  0.246088  0.743538  0.471101  1
  Li  Li11615  1  0.753912  0.256462  0.471101  1
  Li  Li11616  1  0.703361  0.021299  0.287207  1
  Li  Li11617  1  0.021299  0.296639  0.712793  1
  Li  Li11618  1  0.296639  0.978701  0.287207  1
  Li  Li11619  1  0.978701  0.703361  0.712793  1
  Li  Li11620  1  0.703361  0.978701  0.712793  1
  Li  Li11621  1  0.978701  0.296639  0.287207  1
  Li  Li11622  1  0.296639  0.021299  0.712793  1
  Li  Li11623  1  0.021299  0.703361  0.287207  1
  Li  Li11624  1  0.287207  0.703361  0.021299  1
  Li  Li11625  1  0.703361  0.712793  0.978701  1
  Li  Li11626  1  0.712793  0.296639  0.021299  1
  Li  Li11627  1  0.296639  0.287207  0.978701  1
  Li  Li11628  1  0.287207  0.296639  0.978701  1
  Li  Li11629  1  0.296639  0.712793  0.021299  1
  Li  Li11630  1  0.712793  0.703361  0.978701  1
  Li  Li11631  1  0.703361  0.287207  0.021299  1
  Li  Li11632  1  0.021299  0.287207  0.703361  1
  Li  Li11633  1  0.021299  0.712793  0.296639  1
  Li  Li11634  1  0.712793  0.978701  0.703361  1
  Li  Li11635  1  0.978701  0.287207  0.296639  1
  Li  Li11636  1  0.287207  0.021299  0.703361  1
  Li  Li11637  1  0.978701  0.712793  0.703361  1
  Li  Li11638  1  0.712793  0.021299  0.296639  1
  Li  Li11639  1  0.287207  0.978701  0.296639  1
  Li  Li11640  1  0.703361  0.521299  0.787207  1
  Li  Li11641  1  0.021299  0.796639  0.212793  1
  Li  Li11642  1  0.296639  0.478701  0.787207  1
  Li  Li11643  1  0.978701  0.203361  0.212793  1
  Li  Li11644  1  0.703361  0.478701  0.212793  1
  Li  Li11645  1  0.978701  0.796639  0.787207  1
  Li  Li11646  1  0.296639  0.521299  0.212793  1
  Li  Li11647  1  0.021299  0.203361  0.787207  1
  Li  Li11648  1  0.287207  0.203361  0.521299  1
  Li  Li11649  1  0.703361  0.212793  0.478701  1
  Li  Li11650  1  0.712793  0.796639  0.521299  1
  Li  Li11651  1  0.296639  0.787207  0.478701  1
  Li  Li11652  1  0.287207  0.796639  0.478701  1
  Li  Li11653  1  0.296639  0.212793  0.521299  1
  Li  Li11654  1  0.712793  0.203361  0.478701  1
  Li  Li11655  1  0.703361  0.787207  0.521299  1
  Li  Li11656  1  0.021299  0.787207  0.203361  1
  Li  Li11657  1  0.021299  0.212793  0.796639  1
  Li  Li11658  1  0.712793  0.478701  0.203361  1
  Li  Li11659  1  0.978701  0.787207  0.796639  1
  Li  Li11660  1  0.287207  0.521299  0.203361  1
  Li  Li11661  1  0.978701  0.212793  0.203361  1
  Li  Li11662  1  0.712793  0.521299  0.796639  1
  Li  Li11663  1  0.287207  0.478701  0.796639  1
  Li  Li11664  1  0.203361  0.021299  0.787207  1
  Li  Li11665  1  0.521299  0.296639  0.212793  1
  Li  Li11666  1  0.796639  0.978701  0.787207  1
  Li  Li11667  1  0.478701  0.703361  0.212793  1
  Li  Li11668  1  0.203361  0.978701  0.212793  1
  Li  Li11669  1  0.478701  0.296639  0.787207  1
  Li  Li11670  1  0.796639  0.021299  0.212793  1
  Li  Li11671  1  0.521299  0.703361  0.787207  1
  Li  Li11672  1  0.787207  0.703361  0.521299  1
  Li  Li11673  1  0.203361  0.712793  0.478701  1
  Li  Li11674  1  0.212793  0.296639  0.521299  1
  Li  Li11675  1  0.796639  0.287207  0.478701  1
  Li  Li11676  1  0.787207  0.296639  0.478701  1
  Li  Li11677  1  0.796639  0.712793  0.521299  1
  Li  Li11678  1  0.212793  0.703361  0.478701  1
  Li  Li11679  1  0.203361  0.287207  0.521299  1
  Li  Li11680  1  0.521299  0.287207  0.203361  1
  Li  Li11681  1  0.521299  0.712793  0.796639  1
  Li  Li11682  1  0.212793  0.978701  0.203361  1
  Li  Li11683  1  0.478701  0.287207  0.796639  1
  Li  Li11684  1  0.787207  0.021299  0.203361  1
  Li  Li11685  1  0.478701  0.712793  0.203361  1
  Li  Li11686  1  0.212793  0.021299  0.796639  1
  Li  Li11687  1  0.787207  0.978701  0.796639  1
  Li  Li11688  1  0.203361  0.521299  0.287207  1
  Li  Li11689  1  0.521299  0.796639  0.712793  1
  Li  Li11690  1  0.796639  0.478701  0.287207  1
  Li  Li11691  1  0.478701  0.203361  0.712793  1
  Li  Li11692  1  0.203361  0.478701  0.712793  1
  Li  Li11693  1  0.478701  0.796639  0.287207  1
  Li  Li11694  1  0.796639  0.521299  0.712793  1
  Li  Li11695  1  0.521299  0.203361  0.287207  1
  Li  Li11696  1  0.787207  0.203361  0.021299  1
  Li  Li11697  1  0.203361  0.212793  0.978701  1
  Li  Li11698  1  0.212793  0.796639  0.021299  1
  Li  Li11699  1  0.796639  0.787207  0.978701  1
  Li  Li11700  1  0.787207  0.796639  0.978701  1
  Li  Li11701  1  0.796639  0.212793  0.021299  1
  Li  Li11702  1  0.212793  0.203361  0.978701  1
  Li  Li11703  1  0.203361  0.787207  0.021299  1
  Li  Li11704  1  0.521299  0.787207  0.703361  1
  Li  Li11705  1  0.521299  0.212793  0.296639  1
  Li  Li11706  1  0.212793  0.478701  0.703361  1
  Li  Li11707  1  0.478701  0.787207  0.296639  1
  Li  Li11708  1  0.787207  0.521299  0.703361  1
  Li  Li11709  1  0.478701  0.212793  0.703361  1
  Li  Li11710  1  0.212793  0.521299  0.296639  1
  Li  Li11711  1  0.787207  0.478701  0.296639  1
  Li  Li11712  1  0.546118  0.162566  0.292855  1
  Li  Li11713  1  0.162566  0.453882  0.707145  1
  Li  Li11714  1  0.453882  0.837434  0.292855  1
  Li  Li11715  1  0.837434  0.546118  0.707145  1
  Li  Li11716  1  0.546118  0.837434  0.707145  1
  Li  Li11717  1  0.837434  0.453882  0.292855  1
  Li  Li11718  1  0.453882  0.162566  0.707145  1
  Li  Li11719  1  0.162566  0.546118  0.292855  1
  Li  Li11720  1  0.292855  0.546118  0.162566  1
  Li  Li11721  1  0.546118  0.707145  0.837434  1
  Li  Li11722  1  0.707145  0.453882  0.162566  1
  Li  Li11723  1  0.453882  0.292855  0.837434  1
  Li  Li11724  1  0.292855  0.453882  0.837434  1
  Li  Li11725  1  0.453882  0.707145  0.162566  1
  Li  Li11726  1  0.707145  0.546118  0.837434  1
  Li  Li11727  1  0.546118  0.292855  0.162566  1
  Li  Li11728  1  0.162566  0.292855  0.546118  1
  Li  Li11729  1  0.162566  0.707145  0.453882  1
  Li  Li11730  1  0.707145  0.837434  0.546118  1
  Li  Li11731  1  0.837434  0.292855  0.453882  1
  Li  Li11732  1  0.292855  0.162566  0.546118  1
  Li  Li11733  1  0.837434  0.707145  0.546118  1
  Li  Li11734  1  0.707145  0.162566  0.453882  1
  Li  Li11735  1  0.292855  0.837434  0.453882  1
  Li  Li11736  1  0.546118  0.662566  0.792855  1
  Li  Li11737  1  0.162566  0.953882  0.207145  1
  Li  Li11738  1  0.453882  0.337434  0.792855  1
  Li  Li11739  1  0.837434  0.046118  0.207145  1
  Li  Li11740  1  0.546118  0.337434  0.207145  1
  Li  Li11741  1  0.837434  0.953882  0.792855  1
  Li  Li11742  1  0.453882  0.662566  0.207145  1
  Li  Li11743  1  0.162566  0.046118  0.792855  1
  Li  Li11744  1  0.292855  0.046118  0.662566  1
  Li  Li11745  1  0.546118  0.207145  0.337434  1
  Li  Li11746  1  0.707145  0.953882  0.662566  1
  Li  Li11747  1  0.453882  0.792855  0.337434  1
  Li  Li11748  1  0.292855  0.953882  0.337434  1
  Li  Li11749  1  0.453882  0.207145  0.662566  1
  Li  Li11750  1  0.707145  0.046118  0.337434  1
  Li  Li11751  1  0.546118  0.792855  0.662566  1
  Li  Li11752  1  0.162566  0.792855  0.046118  1
  Li  Li11753  1  0.162566  0.207145  0.953882  1
  Li  Li11754  1  0.707145  0.337434  0.046118  1
  Li  Li11755  1  0.837434  0.792855  0.953882  1
  Li  Li11756  1  0.292855  0.662566  0.046118  1
  Li  Li11757  1  0.837434  0.207145  0.046118  1
  Li  Li11758  1  0.707145  0.662566  0.953882  1
  Li  Li11759  1  0.292855  0.337434  0.953882  1
  Li  Li11760  1  0.046118  0.162566  0.792855  1
  Li  Li11761  1  0.662566  0.453882  0.207145  1
  Li  Li11762  1  0.953882  0.837434  0.792855  1
  Li  Li11763  1  0.337434  0.546118  0.207145  1
  Li  Li11764  1  0.046118  0.837434  0.207145  1
  Li  Li11765  1  0.337434  0.453882  0.792855  1
  Li  Li11766  1  0.953882  0.162566  0.207145  1
  Li  Li11767  1  0.662566  0.546118  0.792855  1
  Li  Li11768  1  0.792855  0.546118  0.662566  1
  Li  Li11769  1  0.046118  0.707145  0.337434  1
  Li  Li11770  1  0.207145  0.453882  0.662566  1
  Li  Li11771  1  0.953882  0.292855  0.337434  1
  Li  Li11772  1  0.792855  0.453882  0.337434  1
  Li  Li11773  1  0.953882  0.707145  0.662566  1
  Li  Li11774  1  0.207145  0.546118  0.337434  1
  Li  Li11775  1  0.046118  0.292855  0.662566  1
  Li  Li11776  1  0.662566  0.292855  0.046118  1
  Li  Li11777  1  0.662566  0.707145  0.953882  1
  Li  Li11778  1  0.207145  0.837434  0.046118  1
  Li  Li11779  1  0.337434  0.292855  0.953882  1
  Li  Li11780  1  0.792855  0.162566  0.046118  1
  Li  Li11781  1  0.337434  0.707145  0.046118  1
  Li  Li11782  1  0.207145  0.162566  0.953882  1
  Li  Li11783  1  0.792855  0.837434  0.953882  1
  Li  Li11784  1  0.046118  0.662566  0.292855  1
  Li  Li11785  1  0.662566  0.953882  0.707145  1
  Li  Li11786  1  0.953882  0.337434  0.292855  1
  Li  Li11787  1  0.337434  0.046118  0.707145  1
  Li  Li11788  1  0.046118  0.337434  0.707145  1
  Li  Li11789  1  0.337434  0.953882  0.292855  1
  Li  Li11790  1  0.953882  0.662566  0.707145  1
  Li  Li11791  1  0.662566  0.046118  0.292855  1
  Li  Li11792  1  0.792855  0.046118  0.162566  1
  Li  Li11793  1  0.046118  0.207145  0.837434  1
  Li  Li11794  1  0.207145  0.953882  0.162566  1
  Li  Li11795  1  0.953882  0.792855  0.837434  1
  Li  Li11796  1  0.792855  0.953882  0.837434  1
  Li  Li11797  1  0.953882  0.207145  0.162566  1
  Li  Li11798  1  0.207145  0.046118  0.837434  1
  Li  Li11799  1  0.046118  0.792855  0.162566  1
  Li  Li11800  1  0.662566  0.792855  0.546118  1
  Li  Li11801  1  0.662566  0.207145  0.453882  1
  Li  Li11802  1  0.207145  0.337434  0.546118  1
  Li  Li11803  1  0.337434  0.792855  0.453882  1
  Li  Li11804  1  0.792855  0.662566  0.546118  1
  Li  Li11805  1  0.337434  0.207145  0.546118  1
  Li  Li11806  1  0.207145  0.662566  0.453882  1
  Li  Li11807  1  0.792855  0.337434  0.453882  1
  Li  Li11808  1  0.749144  0.016199  0.260940  1
  Li  Li11809  1  0.016199  0.250856  0.739060  1
  Li  Li11810  1  0.250856  0.983801  0.260940  1
  Li  Li11811  1  0.983801  0.749144  0.739060  1
  Li  Li11812  1  0.749144  0.983801  0.739060  1
  Li  Li11813  1  0.983801  0.250856  0.260940  1
  Li  Li11814  1  0.250856  0.016199  0.739060  1
  Li  Li11815  1  0.016199  0.749144  0.260940  1
  Li  Li11816  1  0.260940  0.749144  0.016199  1
  Li  Li11817  1  0.749144  0.739060  0.983801  1
  Li  Li11818  1  0.739060  0.250856  0.016199  1
  Li  Li11819  1  0.250856  0.260940  0.983801  1
  Li  Li11820  1  0.260940  0.250856  0.983801  1
  Li  Li11821  1  0.250856  0.739060  0.016199  1
  Li  Li11822  1  0.739060  0.749144  0.983801  1
  Li  Li11823  1  0.749144  0.260940  0.016199  1
  Li  Li11824  1  0.016199  0.260940  0.749144  1
  Li  Li11825  1  0.016199  0.739060  0.250856  1
  Li  Li11826  1  0.739060  0.983801  0.749144  1
  Li  Li11827  1  0.983801  0.260940  0.250856  1
  Li  Li11828  1  0.260940  0.016199  0.749144  1
  Li  Li11829  1  0.983801  0.739060  0.749144  1
  Li  Li11830  1  0.739060  0.016199  0.250856  1
  Li  Li11831  1  0.260940  0.983801  0.250856  1
  Li  Li11832  1  0.749144  0.516199  0.760940  1
  Li  Li11833  1  0.016199  0.750856  0.239060  1
  Li  Li11834  1  0.250856  0.483801  0.760940  1
  Li  Li11835  1  0.983801  0.249144  0.239060  1
  Li  Li11836  1  0.749144  0.483801  0.239060  1
  Li  Li11837  1  0.983801  0.750856  0.760940  1
  Li  Li11838  1  0.250856  0.516199  0.239060  1
  Li  Li11839  1  0.016199  0.249144  0.760940  1
  Li  Li11840  1  0.260940  0.249144  0.516199  1
  Li  Li11841  1  0.749144  0.239060  0.483801  1
  Li  Li11842  1  0.739060  0.750856  0.516199  1
  Li  Li11843  1  0.250856  0.760940  0.483801  1
  Li  Li11844  1  0.260940  0.750856  0.483801  1
  Li  Li11845  1  0.250856  0.239060  0.516199  1
  Li  Li11846  1  0.739060  0.249144  0.483801  1
  Li  Li11847  1  0.749144  0.760940  0.516199  1
  Li  Li11848  1  0.016199  0.760940  0.249144  1
  Li  Li11849  1  0.016199  0.239060  0.750856  1
  Li  Li11850  1  0.739060  0.483801  0.249144  1
  Li  Li11851  1  0.983801  0.760940  0.750856  1
  Li  Li11852  1  0.260940  0.516199  0.249144  1
  Li  Li11853  1  0.983801  0.239060  0.249144  1
  Li  Li11854  1  0.739060  0.516199  0.750856  1
  Li  Li11855  1  0.260940  0.483801  0.750856  1
  Li  Li11856  1  0.249144  0.016199  0.760940  1
  Li  Li11857  1  0.516199  0.250856  0.239060  1
  Li  Li11858  1  0.750856  0.983801  0.760940  1
  Li  Li11859  1  0.483801  0.749144  0.239060  1
  Li  Li11860  1  0.249144  0.983801  0.239060  1
  Li  Li11861  1  0.483801  0.250856  0.760940  1
  Li  Li11862  1  0.750856  0.016199  0.239060  1
  Li  Li11863  1  0.516199  0.749144  0.760940  1
  Li  Li11864  1  0.760940  0.749144  0.516199  1
  Li  Li11865  1  0.249144  0.739060  0.483801  1
  Li  Li11866  1  0.239060  0.250856  0.516199  1
  Li  Li11867  1  0.750856  0.260940  0.483801  1
  Li  Li11868  1  0.760940  0.250856  0.483801  1
  Li  Li11869  1  0.750856  0.739060  0.516199  1
  Li  Li11870  1  0.239060  0.749144  0.483801  1
  Li  Li11871  1  0.249144  0.260940  0.516199  1
  Li  Li11872  1  0.516199  0.260940  0.249144  1
  Li  Li11873  1  0.516199  0.739060  0.750856  1
  Li  Li11874  1  0.239060  0.983801  0.249144  1
  Li  Li11875  1  0.483801  0.260940  0.750856  1
  Li  Li11876  1  0.760940  0.016199  0.249144  1
  Li  Li11877  1  0.483801  0.739060  0.249144  1
  Li  Li11878  1  0.239060  0.016199  0.750856  1
  Li  Li11879  1  0.760940  0.983801  0.750856  1
  Li  Li11880  1  0.249144  0.516199  0.260940  1
  Li  Li11881  1  0.516199  0.750856  0.739060  1
  Li  Li11882  1  0.750856  0.483801  0.260940  1
  Li  Li11883  1  0.483801  0.249144  0.739060  1
  Li  Li11884  1  0.249144  0.483801  0.739060  1
  Li  Li11885  1  0.483801  0.750856  0.260940  1
  Li  Li11886  1  0.750856  0.516199  0.739060  1
  Li  Li11887  1  0.516199  0.249144  0.260940  1
  Li  Li11888  1  0.760940  0.249144  0.016199  1
  Li  Li11889  1  0.249144  0.239060  0.983801  1
  Li  Li11890  1  0.239060  0.750856  0.016199  1
  Li  Li11891  1  0.750856  0.760940  0.983801  1
  Li  Li11892  1  0.760940  0.750856  0.983801  1
  Li  Li11893  1  0.750856  0.239060  0.016199  1
  Li  Li11894  1  0.239060  0.249144  0.983801  1
  Li  Li11895  1  0.249144  0.760940  0.016199  1
  Li  Li11896  1  0.516199  0.760940  0.749144  1
  Li  Li11897  1  0.516199  0.239060  0.250856  1
  Li  Li11898  1  0.239060  0.483801  0.749144  1
  Li  Li11899  1  0.483801  0.760940  0.250856  1
  Li  Li11900  1  0.760940  0.516199  0.749144  1
  Li  Li11901  1  0.483801  0.239060  0.749144  1
  Li  Li11902  1  0.239060  0.516199  0.250856  1
  Li  Li11903  1  0.760940  0.483801  0.250856  1
  Li  Li11904  1  0.511332  0.266774  0.236262  1
  Li  Li11905  1  0.266774  0.488668  0.763738  1
  Li  Li11906  1  0.488668  0.733226  0.236262  1
  Li  Li11907  1  0.733226  0.511332  0.763738  1
  Li  Li11908  1  0.511332  0.733226  0.763738  1
  Li  Li11909  1  0.733226  0.488668  0.236262  1
  Li  Li11910  1  0.488668  0.266774  0.763738  1
  Li  Li11911  1  0.266774  0.511332  0.236262  1
  Li  Li11912  1  0.236262  0.511332  0.266774  1
  Li  Li11913  1  0.511332  0.763738  0.733226  1
  Li  Li11914  1  0.763738  0.488668  0.266774  1
  Li  Li11915  1  0.488668  0.236262  0.733226  1
  Li  Li11916  1  0.236262  0.488668  0.733226  1
  Li  Li11917  1  0.488668  0.763738  0.266774  1
  Li  Li11918  1  0.763738  0.511332  0.733226  1
  Li  Li11919  1  0.511332  0.236262  0.266774  1
  Li  Li11920  1  0.266774  0.236262  0.511332  1
  Li  Li11921  1  0.266774  0.763738  0.488668  1
  Li  Li11922  1  0.763738  0.733226  0.511332  1
  Li  Li11923  1  0.733226  0.236262  0.488668  1
  Li  Li11924  1  0.236262  0.266774  0.511332  1
  Li  Li11925  1  0.733226  0.763738  0.511332  1
  Li  Li11926  1  0.763738  0.266774  0.488668  1
  Li  Li11927  1  0.236262  0.733226  0.488668  1
  Li  Li11928  1  0.511332  0.766774  0.736262  1
  Li  Li11929  1  0.266774  0.988668  0.263738  1
  Li  Li11930  1  0.488668  0.233226  0.736262  1
  Li  Li11931  1  0.733226  0.011332  0.263738  1
  Li  Li11932  1  0.511332  0.233226  0.263738  1
  Li  Li11933  1  0.733226  0.988668  0.736262  1
  Li  Li11934  1  0.488668  0.766774  0.263738  1
  Li  Li11935  1  0.266774  0.011332  0.736262  1
  Li  Li11936  1  0.236262  0.011332  0.766774  1
  Li  Li11937  1  0.511332  0.263738  0.233226  1
  Li  Li11938  1  0.763738  0.988668  0.766774  1
  Li  Li11939  1  0.488668  0.736262  0.233226  1
  Li  Li11940  1  0.236262  0.988668  0.233226  1
  Li  Li11941  1  0.488668  0.263738  0.766774  1
  Li  Li11942  1  0.763738  0.011332  0.233226  1
  Li  Li11943  1  0.511332  0.736262  0.766774  1
  Li  Li11944  1  0.266774  0.736262  0.011332  1
  Li  Li11945  1  0.266774  0.263738  0.988668  1
  Li  Li11946  1  0.763738  0.233226  0.011332  1
  Li  Li11947  1  0.733226  0.736262  0.988668  1
  Li  Li11948  1  0.236262  0.766774  0.011332  1
  Li  Li11949  1  0.733226  0.263738  0.011332  1
  Li  Li11950  1  0.763738  0.766774  0.988668  1
  Li  Li11951  1  0.236262  0.233226  0.988668  1
  Li  Li11952  1  0.011332  0.266774  0.736262  1
  Li  Li11953  1  0.766774  0.488668  0.263738  1
  Li  Li11954  1  0.988668  0.733226  0.736262  1
  Li  Li11955  1  0.233226  0.511332  0.263738  1
  Li  Li11956  1  0.011332  0.733226  0.263738  1
  Li  Li11957  1  0.233226  0.488668  0.736262  1
  Li  Li11958  1  0.988668  0.266774  0.263738  1
  Li  Li11959  1  0.766774  0.511332  0.736262  1
  Li  Li11960  1  0.736262  0.511332  0.766774  1
  Li  Li11961  1  0.011332  0.763738  0.233226  1
  Li  Li11962  1  0.263738  0.488668  0.766774  1
  Li  Li11963  1  0.988668  0.236262  0.233226  1
  Li  Li11964  1  0.736262  0.488668  0.233226  1
  Li  Li11965  1  0.988668  0.763738  0.766774  1
  Li  Li11966  1  0.263738  0.511332  0.233226  1
  Li  Li11967  1  0.011332  0.236262  0.766774  1
  Li  Li11968  1  0.766774  0.236262  0.011332  1
  Li  Li11969  1  0.766774  0.763738  0.988668  1
  Li  Li11970  1  0.263738  0.733226  0.011332  1
  Li  Li11971  1  0.233226  0.236262  0.988668  1
  Li  Li11972  1  0.736262  0.266774  0.011332  1
  Li  Li11973  1  0.233226  0.763738  0.011332  1
  Li  Li11974  1  0.263738  0.266774  0.988668  1
  Li  Li11975  1  0.736262  0.733226  0.988668  1
  Li  Li11976  1  0.011332  0.766774  0.236262  1
  Li  Li11977  1  0.766774  0.988668  0.763738  1
  Li  Li11978  1  0.988668  0.233226  0.236262  1
  Li  Li11979  1  0.233226  0.011332  0.763738  1
  Li  Li11980  1  0.011332  0.233226  0.763738  1
  Li  Li11981  1  0.233226  0.988668  0.236262  1
  Li  Li11982  1  0.988668  0.766774  0.763738  1
  Li  Li11983  1  0.766774  0.011332  0.236262  1
  Li  Li11984  1  0.736262  0.011332  0.266774  1
  Li  Li11985  1  0.011332  0.263738  0.733226  1
  Li  Li11986  1  0.263738  0.988668  0.266774  1
  Li  Li11987  1  0.988668  0.736262  0.733226  1
  Li  Li11988  1  0.736262  0.988668  0.733226  1
  Li  Li11989  1  0.988668  0.263738  0.266774  1
  Li  Li11990  1  0.263738  0.011332  0.733226  1
  Li  Li11991  1  0.011332  0.736262  0.266774  1
  Li  Li11992  1  0.766774  0.736262  0.511332  1
  Li  Li11993  1  0.766774  0.263738  0.488668  1
  Li  Li11994  1  0.263738  0.233226  0.511332  1
  Li  Li11995  1  0.233226  0.736262  0.488668  1
  Li  Li11996  1  0.736262  0.766774  0.511332  1
  Li  Li11997  1  0.233226  0.263738  0.511332  1
  Li  Li11998  1  0.263738  0.766774  0.488668  1
  Li  Li11999  1  0.736262  0.233226  0.488668  1
  Li  Li12000  1  0.578484  0.106117  0.282734  1
  Li  Li12001  1  0.106117  0.421516  0.717266  1
  Li  Li12002  1  0.421516  0.893883  0.282734  1
  Li  Li12003  1  0.893883  0.578484  0.717266  1
  Li  Li12004  1  0.578484  0.893883  0.717266  1
  Li  Li12005  1  0.893883  0.421516  0.282734  1
  Li  Li12006  1  0.421516  0.106117  0.717266  1
  Li  Li12007  1  0.106117  0.578484  0.282734  1
  Li  Li12008  1  0.282734  0.578484  0.106117  1
  Li  Li12009  1  0.578484  0.717266  0.893883  1
  Li  Li12010  1  0.717266  0.421516  0.106117  1
  Li  Li12011  1  0.421516  0.282734  0.893883  1
  Li  Li12012  1  0.282734  0.421516  0.893883  1
  Li  Li12013  1  0.421516  0.717266  0.106117  1
  Li  Li12014  1  0.717266  0.578484  0.893883  1
  Li  Li12015  1  0.578484  0.282734  0.106117  1
  Li  Li12016  1  0.106117  0.282734  0.578484  1
  Li  Li12017  1  0.106117  0.717266  0.421516  1
  Li  Li12018  1  0.717266  0.893883  0.578484  1
  Li  Li12019  1  0.893883  0.282734  0.421516  1
  Li  Li12020  1  0.282734  0.106117  0.578484  1
  Li  Li12021  1  0.893883  0.717266  0.578484  1
  Li  Li12022  1  0.717266  0.106117  0.421516  1
  Li  Li12023  1  0.282734  0.893883  0.421516  1
  Li  Li12024  1  0.578484  0.606117  0.782734  1
  Li  Li12025  1  0.106117  0.921516  0.217266  1
  Li  Li12026  1  0.421516  0.393883  0.782734  1
  Li  Li12027  1  0.893883  0.078484  0.217266  1
  Li  Li12028  1  0.578484  0.393883  0.217266  1
  Li  Li12029  1  0.893883  0.921516  0.782734  1
  Li  Li12030  1  0.421516  0.606117  0.217266  1
  Li  Li12031  1  0.106117  0.078484  0.782734  1
  Li  Li12032  1  0.282734  0.078484  0.606117  1
  Li  Li12033  1  0.578484  0.217266  0.393883  1
  Li  Li12034  1  0.717266  0.921516  0.606117  1
  Li  Li12035  1  0.421516  0.782734  0.393883  1
  Li  Li12036  1  0.282734  0.921516  0.393883  1
  Li  Li12037  1  0.421516  0.217266  0.606117  1
  Li  Li12038  1  0.717266  0.078484  0.393883  1
  Li  Li12039  1  0.578484  0.782734  0.606117  1
  Li  Li12040  1  0.106117  0.782734  0.078484  1
  Li  Li12041  1  0.106117  0.217266  0.921516  1
  Li  Li12042  1  0.717266  0.393883  0.078484  1
  Li  Li12043  1  0.893883  0.782734  0.921516  1
  Li  Li12044  1  0.282734  0.606117  0.078484  1
  Li  Li12045  1  0.893883  0.217266  0.078484  1
  Li  Li12046  1  0.717266  0.606117  0.921516  1
  Li  Li12047  1  0.282734  0.393883  0.921516  1
  Li  Li12048  1  0.078484  0.106117  0.782734  1
  Li  Li12049  1  0.606117  0.421516  0.217266  1
  Li  Li12050  1  0.921516  0.893883  0.782734  1
  Li  Li12051  1  0.393883  0.578484  0.217266  1
  Li  Li12052  1  0.078484  0.893883  0.217266  1
  Li  Li12053  1  0.393883  0.421516  0.782734  1
  Li  Li12054  1  0.921516  0.106117  0.217266  1
  Li  Li12055  1  0.606117  0.578484  0.782734  1
  Li  Li12056  1  0.782734  0.578484  0.606117  1
  Li  Li12057  1  0.078484  0.717266  0.393883  1
  Li  Li12058  1  0.217266  0.421516  0.606117  1
  Li  Li12059  1  0.921516  0.282734  0.393883  1
  Li  Li12060  1  0.782734  0.421516  0.393883  1
  Li  Li12061  1  0.921516  0.717266  0.606117  1
  Li  Li12062  1  0.217266  0.578484  0.393883  1
  Li  Li12063  1  0.078484  0.282734  0.606117  1
  Li  Li12064  1  0.606117  0.282734  0.078484  1
  Li  Li12065  1  0.606117  0.717266  0.921516  1
  Li  Li12066  1  0.217266  0.893883  0.078484  1
  Li  Li12067  1  0.393883  0.282734  0.921516  1
  Li  Li12068  1  0.782734  0.106117  0.078484  1
  Li  Li12069  1  0.393883  0.717266  0.078484  1
  Li  Li12070  1  0.217266  0.106117  0.921516  1
  Li  Li12071  1  0.782734  0.893883  0.921516  1
  Li  Li12072  1  0.078484  0.606117  0.282734  1
  Li  Li12073  1  0.606117  0.921516  0.717266  1
  Li  Li12074  1  0.921516  0.393883  0.282734  1
  Li  Li12075  1  0.393883  0.078484  0.717266  1
  Li  Li12076  1  0.078484  0.393883  0.717266  1
  Li  Li12077  1  0.393883  0.921516  0.282734  1
  Li  Li12078  1  0.921516  0.606117  0.717266  1
  Li  Li12079  1  0.606117  0.078484  0.282734  1
  Li  Li12080  1  0.782734  0.078484  0.106117  1
  Li  Li12081  1  0.078484  0.217266  0.893883  1
  Li  Li12082  1  0.217266  0.921516  0.106117  1
  Li  Li12083  1  0.921516  0.782734  0.893883  1
  Li  Li12084  1  0.782734  0.921516  0.893883  1
  Li  Li12085  1  0.921516  0.217266  0.106117  1
  Li  Li12086  1  0.217266  0.078484  0.893883  1
  Li  Li12087  1  0.078484  0.782734  0.106117  1
  Li  Li12088  1  0.606117  0.782734  0.578484  1
  Li  Li12089  1  0.606117  0.217266  0.421516  1
  Li  Li12090  1  0.217266  0.393883  0.578484  1
  Li  Li12091  1  0.393883  0.782734  0.421516  1
  Li  Li12092  1  0.782734  0.606117  0.578484  1
  Li  Li12093  1  0.393883  0.217266  0.578484  1
  Li  Li12094  1  0.217266  0.606117  0.421516  1
  Li  Li12095  1  0.782734  0.393883  0.421516  1
  Li  Li12096  1  0.518796  0.308455  0.198244  1
  Li  Li12097  1  0.308455  0.481204  0.801756  1
  Li  Li12098  1  0.481204  0.691545  0.198244  1
  Li  Li12099  1  0.691545  0.518796  0.801756  1
  Li  Li12100  1  0.518796  0.691545  0.801756  1
  Li  Li12101  1  0.691545  0.481204  0.198244  1
  Li  Li12102  1  0.481204  0.308455  0.801756  1
  Li  Li12103  1  0.308455  0.518796  0.198244  1
  Li  Li12104  1  0.198244  0.518796  0.308455  1
  Li  Li12105  1  0.518796  0.801756  0.691545  1
  Li  Li12106  1  0.801756  0.481204  0.308455  1
  Li  Li12107  1  0.481204  0.198244  0.691545  1
  Li  Li12108  1  0.198244  0.481204  0.691545  1
  Li  Li12109  1  0.481204  0.801756  0.308455  1
  Li  Li12110  1  0.801756  0.518796  0.691545  1
  Li  Li12111  1  0.518796  0.198244  0.308455  1
  Li  Li12112  1  0.308455  0.198244  0.518796  1
  Li  Li12113  1  0.308455  0.801756  0.481204  1
  Li  Li12114  1  0.801756  0.691545  0.518796  1
  Li  Li12115  1  0.691545  0.198244  0.481204  1
  Li  Li12116  1  0.198244  0.308455  0.518796  1
  Li  Li12117  1  0.691545  0.801756  0.518796  1
  Li  Li12118  1  0.801756  0.308455  0.481204  1
  Li  Li12119  1  0.198244  0.691545  0.481204  1
  Li  Li12120  1  0.518796  0.808455  0.698244  1
  Li  Li12121  1  0.308455  0.981204  0.301756  1
  Li  Li12122  1  0.481204  0.191545  0.698244  1
  Li  Li12123  1  0.691545  0.018796  0.301756  1
  Li  Li12124  1  0.518796  0.191545  0.301756  1
  Li  Li12125  1  0.691545  0.981204  0.698244  1
  Li  Li12126  1  0.481204  0.808455  0.301756  1
  Li  Li12127  1  0.308455  0.018796  0.698244  1
  Li  Li12128  1  0.198244  0.018796  0.808455  1
  Li  Li12129  1  0.518796  0.301756  0.191545  1
  Li  Li12130  1  0.801756  0.981204  0.808455  1
  Li  Li12131  1  0.481204  0.698244  0.191545  1
  Li  Li12132  1  0.198244  0.981204  0.191545  1
  Li  Li12133  1  0.481204  0.301756  0.808455  1
  Li  Li12134  1  0.801756  0.018796  0.191545  1
  Li  Li12135  1  0.518796  0.698244  0.808455  1
  Li  Li12136  1  0.308455  0.698244  0.018796  1
  Li  Li12137  1  0.308455  0.301756  0.981204  1
  Li  Li12138  1  0.801756  0.191545  0.018796  1
  Li  Li12139  1  0.691545  0.698244  0.981204  1
  Li  Li12140  1  0.198244  0.808455  0.018796  1
  Li  Li12141  1  0.691545  0.301756  0.018796  1
  Li  Li12142  1  0.801756  0.808455  0.981204  1
  Li  Li12143  1  0.198244  0.191545  0.981204  1
  Li  Li12144  1  0.018796  0.308455  0.698244  1
  Li  Li12145  1  0.808455  0.481204  0.301756  1
  Li  Li12146  1  0.981204  0.691545  0.698244  1
  Li  Li12147  1  0.191545  0.518796  0.301756  1
  Li  Li12148  1  0.018796  0.691545  0.301756  1
  Li  Li12149  1  0.191545  0.481204  0.698244  1
  Li  Li12150  1  0.981204  0.308455  0.301756  1
  Li  Li12151  1  0.808455  0.518796  0.698244  1
  Li  Li12152  1  0.698244  0.518796  0.808455  1
  Li  Li12153  1  0.018796  0.801756  0.191545  1
  Li  Li12154  1  0.301756  0.481204  0.808455  1
  Li  Li12155  1  0.981204  0.198244  0.191545  1
  Li  Li12156  1  0.698244  0.481204  0.191545  1
  Li  Li12157  1  0.981204  0.801756  0.808455  1
  Li  Li12158  1  0.301756  0.518796  0.191545  1
  Li  Li12159  1  0.018796  0.198244  0.808455  1
  Li  Li12160  1  0.808455  0.198244  0.018796  1
  Li  Li12161  1  0.808455  0.801756  0.981204  1
  Li  Li12162  1  0.301756  0.691545  0.018796  1
  Li  Li12163  1  0.191545  0.198244  0.981204  1
  Li  Li12164  1  0.698244  0.308455  0.018796  1
  Li  Li12165  1  0.191545  0.801756  0.018796  1
  Li  Li12166  1  0.301756  0.308455  0.981204  1
  Li  Li12167  1  0.698244  0.691545  0.981204  1
  Li  Li12168  1  0.018796  0.808455  0.198244  1
  Li  Li12169  1  0.808455  0.981204  0.801756  1
  Li  Li12170  1  0.981204  0.191545  0.198244  1
  Li  Li12171  1  0.191545  0.018796  0.801756  1
  Li  Li12172  1  0.018796  0.191545  0.801756  1
  Li  Li12173  1  0.191545  0.981204  0.198244  1
  Li  Li12174  1  0.981204  0.808455  0.801756  1
  Li  Li12175  1  0.808455  0.018796  0.198244  1
  Li  Li12176  1  0.698244  0.018796  0.308455  1
  Li  Li12177  1  0.018796  0.301756  0.691545  1
  Li  Li12178  1  0.301756  0.981204  0.308455  1
  Li  Li12179  1  0.981204  0.698244  0.691545  1
  Li  Li12180  1  0.698244  0.981204  0.691545  1
  Li  Li12181  1  0.981204  0.301756  0.308455  1
  Li  Li12182  1  0.301756  0.018796  0.691545  1
  Li  Li12183  1  0.018796  0.698244  0.308455  1
  Li  Li12184  1  0.808455  0.698244  0.518796  1
  Li  Li12185  1  0.808455  0.301756  0.481204  1
  Li  Li12186  1  0.301756  0.191545  0.518796  1
  Li  Li12187  1  0.191545  0.698244  0.481204  1
  Li  Li12188  1  0.698244  0.808455  0.518796  1
  Li  Li12189  1  0.191545  0.301756  0.518796  1
  Li  Li12190  1  0.301756  0.808455  0.481204  1
  Li  Li12191  1  0.698244  0.191545  0.481204  1
  Li  Li12192  1  0.963723  0.176623  0.137649  1
  Li  Li12193  1  0.176623  0.036277  0.862351  1
  Li  Li12194  1  0.036277  0.823377  0.137649  1
  Li  Li12195  1  0.823377  0.963723  0.862351  1
  Li  Li12196  1  0.963723  0.823377  0.862351  1
  Li  Li12197  1  0.823377  0.036277  0.137649  1
  Li  Li12198  1  0.036277  0.176623  0.862351  1
  Li  Li12199  1  0.176623  0.963723  0.137649  1
  Li  Li12200  1  0.137649  0.963723  0.176623  1
  Li  Li12201  1  0.963723  0.862351  0.823377  1
  Li  Li12202  1  0.862351  0.036277  0.176623  1
  Li  Li12203  1  0.036277  0.137649  0.823377  1
  Li  Li12204  1  0.137649  0.036277  0.823377  1
  Li  Li12205  1  0.036277  0.862351  0.176623  1
  Li  Li12206  1  0.862351  0.963723  0.823377  1
  Li  Li12207  1  0.963723  0.137649  0.176623  1
  Li  Li12208  1  0.176623  0.137649  0.963723  1
  Li  Li12209  1  0.176623  0.862351  0.036277  1
  Li  Li12210  1  0.862351  0.823377  0.963723  1
  Li  Li12211  1  0.823377  0.137649  0.036277  1
  Li  Li12212  1  0.137649  0.176623  0.963723  1
  Li  Li12213  1  0.823377  0.862351  0.963723  1
  Li  Li12214  1  0.862351  0.176623  0.036277  1
  Li  Li12215  1  0.137649  0.823377  0.036277  1
  Li  Li12216  1  0.963723  0.676623  0.637649  1
  Li  Li12217  1  0.176623  0.536277  0.362351  1
  Li  Li12218  1  0.036277  0.323377  0.637649  1
  Li  Li12219  1  0.823377  0.463723  0.362351  1
  Li  Li12220  1  0.963723  0.323377  0.362351  1
  Li  Li12221  1  0.823377  0.536277  0.637649  1
  Li  Li12222  1  0.036277  0.676623  0.362351  1
  Li  Li12223  1  0.176623  0.463723  0.637649  1
  Li  Li12224  1  0.137649  0.463723  0.676623  1
  Li  Li12225  1  0.963723  0.362351  0.323377  1
  Li  Li12226  1  0.862351  0.536277  0.676623  1
  Li  Li12227  1  0.036277  0.637649  0.323377  1
  Li  Li12228  1  0.137649  0.536277  0.323377  1
  Li  Li12229  1  0.036277  0.362351  0.676623  1
  Li  Li12230  1  0.862351  0.463723  0.323377  1
  Li  Li12231  1  0.963723  0.637649  0.676623  1
  Li  Li12232  1  0.176623  0.637649  0.463723  1
  Li  Li12233  1  0.176623  0.362351  0.536277  1
  Li  Li12234  1  0.862351  0.323377  0.463723  1
  Li  Li12235  1  0.823377  0.637649  0.536277  1
  Li  Li12236  1  0.137649  0.676623  0.463723  1
  Li  Li12237  1  0.823377  0.362351  0.463723  1
  Li  Li12238  1  0.862351  0.676623  0.536277  1
  Li  Li12239  1  0.137649  0.323377  0.536277  1
  Li  Li12240  1  0.463723  0.176623  0.637649  1
  Li  Li12241  1  0.676623  0.036277  0.362351  1
  Li  Li12242  1  0.536277  0.823377  0.637649  1
  Li  Li12243  1  0.323377  0.963723  0.362351  1
  Li  Li12244  1  0.463723  0.823377  0.362351  1
  Li  Li12245  1  0.323377  0.036277  0.637649  1
  Li  Li12246  1  0.536277  0.176623  0.362351  1
  Li  Li12247  1  0.676623  0.963723  0.637649  1
  Li  Li12248  1  0.637649  0.963723  0.676623  1
  Li  Li12249  1  0.463723  0.862351  0.323377  1
  Li  Li12250  1  0.362351  0.036277  0.676623  1
  Li  Li12251  1  0.536277  0.137649  0.323377  1
  Li  Li12252  1  0.637649  0.036277  0.323377  1
  Li  Li12253  1  0.536277  0.862351  0.676623  1
  Li  Li12254  1  0.362351  0.963723  0.323377  1
  Li  Li12255  1  0.463723  0.137649  0.676623  1
  Li  Li12256  1  0.676623  0.137649  0.463723  1
  Li  Li12257  1  0.676623  0.862351  0.536277  1
  Li  Li12258  1  0.362351  0.823377  0.463723  1
  Li  Li12259  1  0.323377  0.137649  0.536277  1
  Li  Li12260  1  0.637649  0.176623  0.463723  1
  Li  Li12261  1  0.323377  0.862351  0.463723  1
  Li  Li12262  1  0.362351  0.176623  0.536277  1
  Li  Li12263  1  0.637649  0.823377  0.536277  1
  Li  Li12264  1  0.463723  0.676623  0.137649  1
  Li  Li12265  1  0.676623  0.536277  0.862351  1
  Li  Li12266  1  0.536277  0.323377  0.137649  1
  Li  Li12267  1  0.323377  0.463723  0.862351  1
  Li  Li12268  1  0.463723  0.323377  0.862351  1
  Li  Li12269  1  0.323377  0.536277  0.137649  1
  Li  Li12270  1  0.536277  0.676623  0.862351  1
  Li  Li12271  1  0.676623  0.463723  0.137649  1
  Li  Li12272  1  0.637649  0.463723  0.176623  1
  Li  Li12273  1  0.463723  0.362351  0.823377  1
  Li  Li12274  1  0.362351  0.536277  0.176623  1
  Li  Li12275  1  0.536277  0.637649  0.823377  1
  Li  Li12276  1  0.637649  0.536277  0.823377  1
  Li  Li12277  1  0.536277  0.362351  0.176623  1
  Li  Li12278  1  0.362351  0.463723  0.823377  1
  Li  Li12279  1  0.463723  0.637649  0.176623  1
  Li  Li12280  1  0.676623  0.637649  0.963723  1
  Li  Li12281  1  0.676623  0.362351  0.036277  1
  Li  Li12282  1  0.362351  0.323377  0.963723  1
  Li  Li12283  1  0.323377  0.637649  0.036277  1
  Li  Li12284  1  0.637649  0.676623  0.963723  1
  Li  Li12285  1  0.323377  0.362351  0.963723  1
  Li  Li12286  1  0.362351  0.676623  0.036277  1
  Li  Li12287  1  0.637649  0.323377  0.036277  1
  Li  Li12288  1  0.745247  0.400541  0.082473  1
  Li  Li12289  1  0.400541  0.254753  0.917527  1
  Li  Li12290  1  0.254753  0.599459  0.082473  1
  Li  Li12291  1  0.599459  0.745247  0.917527  1
  Li  Li12292  1  0.745247  0.599459  0.917527  1
  Li  Li12293  1  0.599459  0.254753  0.082473  1
  Li  Li12294  1  0.254753  0.400541  0.917527  1
  Li  Li12295  1  0.400541  0.745247  0.082473  1
  Li  Li12296  1  0.082473  0.745247  0.400541  1
  Li  Li12297  1  0.745247  0.917527  0.599459  1
  Li  Li12298  1  0.917527  0.254753  0.400541  1
  Li  Li12299  1  0.254753  0.082473  0.599459  1
  Li  Li12300  1  0.082473  0.254753  0.599459  1
  Li  Li12301  1  0.254753  0.917527  0.400541  1
  Li  Li12302  1  0.917527  0.745247  0.599459  1
  Li  Li12303  1  0.745247  0.082473  0.400541  1
  Li  Li12304  1  0.400541  0.082473  0.745247  1
  Li  Li12305  1  0.400541  0.917527  0.254753  1
  Li  Li12306  1  0.917527  0.599459  0.745247  1
  Li  Li12307  1  0.599459  0.082473  0.254753  1
  Li  Li12308  1  0.082473  0.400541  0.745247  1
  Li  Li12309  1  0.599459  0.917527  0.745247  1
  Li  Li12310  1  0.917527  0.400541  0.254753  1
  Li  Li12311  1  0.082473  0.599459  0.254753  1
  Li  Li12312  1  0.745247  0.900541  0.582473  1
  Li  Li12313  1  0.400541  0.754753  0.417527  1
  Li  Li12314  1  0.254753  0.099459  0.582473  1
  Li  Li12315  1  0.599459  0.245247  0.417527  1
  Li  Li12316  1  0.745247  0.099459  0.417527  1
  Li  Li12317  1  0.599459  0.754753  0.582473  1
  Li  Li12318  1  0.254753  0.900541  0.417527  1
  Li  Li12319  1  0.400541  0.245247  0.582473  1
  Li  Li12320  1  0.082473  0.245247  0.900541  1
  Li  Li12321  1  0.745247  0.417527  0.099459  1
  Li  Li12322  1  0.917527  0.754753  0.900541  1
  Li  Li12323  1  0.254753  0.582473  0.099459  1
  Li  Li12324  1  0.082473  0.754753  0.099459  1
  Li  Li12325  1  0.254753  0.417527  0.900541  1
  Li  Li12326  1  0.917527  0.245247  0.099459  1
  Li  Li12327  1  0.745247  0.582473  0.900541  1
  Li  Li12328  1  0.400541  0.582473  0.245247  1
  Li  Li12329  1  0.400541  0.417527  0.754753  1
  Li  Li12330  1  0.917527  0.099459  0.245247  1
  Li  Li12331  1  0.599459  0.582473  0.754753  1
  Li  Li12332  1  0.082473  0.900541  0.245247  1
  Li  Li12333  1  0.599459  0.417527  0.245247  1
  Li  Li12334  1  0.917527  0.900541  0.754753  1
  Li  Li12335  1  0.082473  0.099459  0.754753  1
  Li  Li12336  1  0.245247  0.400541  0.582473  1
  Li  Li12337  1  0.900541  0.254753  0.417527  1
  Li  Li12338  1  0.754753  0.599459  0.582473  1
  Li  Li12339  1  0.099459  0.745247  0.417527  1
  Li  Li12340  1  0.245247  0.599459  0.417527  1
  Li  Li12341  1  0.099459  0.254753  0.582473  1
  Li  Li12342  1  0.754753  0.400541  0.417527  1
  Li  Li12343  1  0.900541  0.745247  0.582473  1
  Li  Li12344  1  0.582473  0.745247  0.900541  1
  Li  Li12345  1  0.245247  0.917527  0.099459  1
  Li  Li12346  1  0.417527  0.254753  0.900541  1
  Li  Li12347  1  0.754753  0.082473  0.099459  1
  Li  Li12348  1  0.582473  0.254753  0.099459  1
  Li  Li12349  1  0.754753  0.917527  0.900541  1
  Li  Li12350  1  0.417527  0.745247  0.099459  1
  Li  Li12351  1  0.245247  0.082473  0.900541  1
  Li  Li12352  1  0.900541  0.082473  0.245247  1
  Li  Li12353  1  0.900541  0.917527  0.754753  1
  Li  Li12354  1  0.417527  0.599459  0.245247  1
  Li  Li12355  1  0.099459  0.082473  0.754753  1
  Li  Li12356  1  0.582473  0.400541  0.245247  1
  Li  Li12357  1  0.099459  0.917527  0.245247  1
  Li  Li12358  1  0.417527  0.400541  0.754753  1
  Li  Li12359  1  0.582473  0.599459  0.754753  1
  Li  Li12360  1  0.245247  0.900541  0.082473  1
  Li  Li12361  1  0.900541  0.754753  0.917527  1
  Li  Li12362  1  0.754753  0.099459  0.082473  1
  Li  Li12363  1  0.099459  0.245247  0.917527  1
  Li  Li12364  1  0.245247  0.099459  0.917527  1
  Li  Li12365  1  0.099459  0.754753  0.082473  1
  Li  Li12366  1  0.754753  0.900541  0.917527  1
  Li  Li12367  1  0.900541  0.245247  0.082473  1
  Li  Li12368  1  0.582473  0.245247  0.400541  1
  Li  Li12369  1  0.245247  0.417527  0.599459  1
  Li  Li12370  1  0.417527  0.754753  0.400541  1
  Li  Li12371  1  0.754753  0.582473  0.599459  1
  Li  Li12372  1  0.582473  0.754753  0.599459  1
  Li  Li12373  1  0.754753  0.417527  0.400541  1
  Li  Li12374  1  0.417527  0.245247  0.599459  1
  Li  Li12375  1  0.245247  0.582473  0.400541  1
  Li  Li12376  1  0.900541  0.582473  0.745247  1
  Li  Li12377  1  0.900541  0.417527  0.254753  1
  Li  Li12378  1  0.417527  0.099459  0.745247  1
  Li  Li12379  1  0.099459  0.582473  0.254753  1
  Li  Li12380  1  0.582473  0.900541  0.745247  1
  Li  Li12381  1  0.099459  0.417527  0.745247  1
  Li  Li12382  1  0.417527  0.900541  0.254753  1
  Li  Li12383  1  0.582473  0.099459  0.254753  1
  Li  Li12384  1  0.513450  0.285260  0.233395  1
  Li  Li12385  1  0.285260  0.486550  0.766605  1
  Li  Li12386  1  0.486550  0.714740  0.233395  1
  Li  Li12387  1  0.714740  0.513450  0.766605  1
  Li  Li12388  1  0.513450  0.714740  0.766605  1
  Li  Li12389  1  0.714740  0.486550  0.233395  1
  Li  Li12390  1  0.486550  0.285260  0.766605  1
  Li  Li12391  1  0.285260  0.513450  0.233395  1
  Li  Li12392  1  0.233395  0.513450  0.285260  1
  Li  Li12393  1  0.513450  0.766605  0.714740  1
  Li  Li12394  1  0.766605  0.486550  0.285260  1
  Li  Li12395  1  0.486550  0.233395  0.714740  1
  Li  Li12396  1  0.233395  0.486550  0.714740  1
  Li  Li12397  1  0.486550  0.766605  0.285260  1
  Li  Li12398  1  0.766605  0.513450  0.714740  1
  Li  Li12399  1  0.513450  0.233395  0.285260  1
  Li  Li12400  1  0.285260  0.233395  0.513450  1
  Li  Li12401  1  0.285260  0.766605  0.486550  1
  Li  Li12402  1  0.766605  0.714740  0.513450  1
  Li  Li12403  1  0.714740  0.233395  0.486550  1
  Li  Li12404  1  0.233395  0.285260  0.513450  1
  Li  Li12405  1  0.714740  0.766605  0.513450  1
  Li  Li12406  1  0.766605  0.285260  0.486550  1
  Li  Li12407  1  0.233395  0.714740  0.486550  1
  Li  Li12408  1  0.513450  0.785260  0.733395  1
  Li  Li12409  1  0.285260  0.986550  0.266605  1
  Li  Li12410  1  0.486550  0.214740  0.733395  1
  Li  Li12411  1  0.714740  0.013450  0.266605  1
  Li  Li12412  1  0.513450  0.214740  0.266605  1
  Li  Li12413  1  0.714740  0.986550  0.733395  1
  Li  Li12414  1  0.486550  0.785260  0.266605  1
  Li  Li12415  1  0.285260  0.013450  0.733395  1
  Li  Li12416  1  0.233395  0.013450  0.785260  1
  Li  Li12417  1  0.513450  0.266605  0.214740  1
  Li  Li12418  1  0.766605  0.986550  0.785260  1
  Li  Li12419  1  0.486550  0.733395  0.214740  1
  Li  Li12420  1  0.233395  0.986550  0.214740  1
  Li  Li12421  1  0.486550  0.266605  0.785260  1
  Li  Li12422  1  0.766605  0.013450  0.214740  1
  Li  Li12423  1  0.513450  0.733395  0.785260  1
  Li  Li12424  1  0.285260  0.733395  0.013450  1
  Li  Li12425  1  0.285260  0.266605  0.986550  1
  Li  Li12426  1  0.766605  0.214740  0.013450  1
  Li  Li12427  1  0.714740  0.733395  0.986550  1
  Li  Li12428  1  0.233395  0.785260  0.013450  1
  Li  Li12429  1  0.714740  0.266605  0.013450  1
  Li  Li12430  1  0.766605  0.785260  0.986550  1
  Li  Li12431  1  0.233395  0.214740  0.986550  1
  Li  Li12432  1  0.013450  0.285260  0.733395  1
  Li  Li12433  1  0.785260  0.486550  0.266605  1
  Li  Li12434  1  0.986550  0.714740  0.733395  1
  Li  Li12435  1  0.214740  0.513450  0.266605  1
  Li  Li12436  1  0.013450  0.714740  0.266605  1
  Li  Li12437  1  0.214740  0.486550  0.733395  1
  Li  Li12438  1  0.986550  0.285260  0.266605  1
  Li  Li12439  1  0.785260  0.513450  0.733395  1
  Li  Li12440  1  0.733395  0.513450  0.785260  1
  Li  Li12441  1  0.013450  0.766605  0.214740  1
  Li  Li12442  1  0.266605  0.486550  0.785260  1
  Li  Li12443  1  0.986550  0.233395  0.214740  1
  Li  Li12444  1  0.733395  0.486550  0.214740  1
  Li  Li12445  1  0.986550  0.766605  0.785260  1
  Li  Li12446  1  0.266605  0.513450  0.214740  1
  Li  Li12447  1  0.013450  0.233395  0.785260  1
  Li  Li12448  1  0.785260  0.233395  0.013450  1
  Li  Li12449  1  0.785260  0.766605  0.986550  1
  Li  Li12450  1  0.266605  0.714740  0.013450  1
  Li  Li12451  1  0.214740  0.233395  0.986550  1
  Li  Li12452  1  0.733395  0.285260  0.013450  1
  Li  Li12453  1  0.214740  0.766605  0.013450  1
  Li  Li12454  1  0.266605  0.285260  0.986550  1
  Li  Li12455  1  0.733395  0.714740  0.986550  1
  Li  Li12456  1  0.013450  0.785260  0.233395  1
  Li  Li12457  1  0.785260  0.986550  0.766605  1
  Li  Li12458  1  0.986550  0.214740  0.233395  1
  Li  Li12459  1  0.214740  0.013450  0.766605  1
  Li  Li12460  1  0.013450  0.214740  0.766605  1
  Li  Li12461  1  0.214740  0.986550  0.233395  1
  Li  Li12462  1  0.986550  0.785260  0.766605  1
  Li  Li12463  1  0.785260  0.013450  0.233395  1
  Li  Li12464  1  0.733395  0.013450  0.285260  1
  Li  Li12465  1  0.013450  0.266605  0.714740  1
  Li  Li12466  1  0.266605  0.986550  0.285260  1
  Li  Li12467  1  0.986550  0.733395  0.714740  1
  Li  Li12468  1  0.733395  0.986550  0.714740  1
  Li  Li12469  1  0.986550  0.266605  0.285260  1
  Li  Li12470  1  0.266605  0.013450  0.714740  1
  Li  Li12471  1  0.013450  0.733395  0.285260  1
  Li  Li12472  1  0.785260  0.733395  0.513450  1
  Li  Li12473  1  0.785260  0.266605  0.486550  1
  Li  Li12474  1  0.266605  0.214740  0.513450  1
  Li  Li12475  1  0.214740  0.733395  0.486550  1
  Li  Li12476  1  0.733395  0.785260  0.513450  1
  Li  Li12477  1  0.214740  0.266605  0.513450  1
  Li  Li12478  1  0.266605  0.785260  0.486550  1
  Li  Li12479  1  0.733395  0.214740  0.486550  1
  Li  Li12480  1  0.785473  0.213493  0.022444  1
  Li  Li12481  1  0.213493  0.214527  0.977556  1
  Li  Li12482  1  0.214527  0.786507  0.022444  1
  Li  Li12483  1  0.786507  0.785473  0.977556  1
  Li  Li12484  1  0.785473  0.786507  0.977556  1
  Li  Li12485  1  0.786507  0.214527  0.022444  1
  Li  Li12486  1  0.214527  0.213493  0.977556  1
  Li  Li12487  1  0.213493  0.785473  0.022444  1
  Li  Li12488  1  0.022444  0.785473  0.213493  1
  Li  Li12489  1  0.785473  0.977556  0.786507  1
  Li  Li12490  1  0.977556  0.214527  0.213493  1
  Li  Li12491  1  0.214527  0.022444  0.786507  1
  Li  Li12492  1  0.022444  0.214527  0.786507  1
  Li  Li12493  1  0.214527  0.977556  0.213493  1
  Li  Li12494  1  0.977556  0.785473  0.786507  1
  Li  Li12495  1  0.785473  0.022444  0.213493  1
  Li  Li12496  1  0.213493  0.022444  0.785473  1
  Li  Li12497  1  0.213493  0.977556  0.214527  1
  Li  Li12498  1  0.977556  0.786507  0.785473  1
  Li  Li12499  1  0.786507  0.022444  0.214527  1
  Li  Li12500  1  0.022444  0.213493  0.785473  1
  Li  Li12501  1  0.786507  0.977556  0.785473  1
  Li  Li12502  1  0.977556  0.213493  0.214527  1
  Li  Li12503  1  0.022444  0.786507  0.214527  1
  Li  Li12504  1  0.785473  0.713493  0.522444  1
  Li  Li12505  1  0.213493  0.714527  0.477556  1
  Li  Li12506  1  0.214527  0.286507  0.522444  1
  Li  Li12507  1  0.786507  0.285473  0.477556  1
  Li  Li12508  1  0.785473  0.286507  0.477556  1
  Li  Li12509  1  0.786507  0.714527  0.522444  1
  Li  Li12510  1  0.214527  0.713493  0.477556  1
  Li  Li12511  1  0.213493  0.285473  0.522444  1
  Li  Li12512  1  0.022444  0.285473  0.713493  1
  Li  Li12513  1  0.785473  0.477556  0.286507  1
  Li  Li12514  1  0.977556  0.714527  0.713493  1
  Li  Li12515  1  0.214527  0.522444  0.286507  1
  Li  Li12516  1  0.022444  0.714527  0.286507  1
  Li  Li12517  1  0.214527  0.477556  0.713493  1
  Li  Li12518  1  0.977556  0.285473  0.286507  1
  Li  Li12519  1  0.785473  0.522444  0.713493  1
  Li  Li12520  1  0.213493  0.522444  0.285473  1
  Li  Li12521  1  0.213493  0.477556  0.714527  1
  Li  Li12522  1  0.977556  0.286507  0.285473  1
  Li  Li12523  1  0.786507  0.522444  0.714527  1
  Li  Li12524  1  0.022444  0.713493  0.285473  1
  Li  Li12525  1  0.786507  0.477556  0.285473  1
  Li  Li12526  1  0.977556  0.713493  0.714527  1
  Li  Li12527  1  0.022444  0.286507  0.714527  1
  Li  Li12528  1  0.285473  0.213493  0.522444  1
  Li  Li12529  1  0.713493  0.214527  0.477556  1
  Li  Li12530  1  0.714527  0.786507  0.522444  1
  Li  Li12531  1  0.286507  0.785473  0.477556  1
  Li  Li12532  1  0.285473  0.786507  0.477556  1
  Li  Li12533  1  0.286507  0.214527  0.522444  1
  Li  Li12534  1  0.714527  0.213493  0.477556  1
  Li  Li12535  1  0.713493  0.785473  0.522444  1
  Li  Li12536  1  0.522444  0.785473  0.713493  1
  Li  Li12537  1  0.285473  0.977556  0.286507  1
  Li  Li12538  1  0.477556  0.214527  0.713493  1
  Li  Li12539  1  0.714527  0.022444  0.286507  1
  Li  Li12540  1  0.522444  0.214527  0.286507  1
  Li  Li12541  1  0.714527  0.977556  0.713493  1
  Li  Li12542  1  0.477556  0.785473  0.286507  1
  Li  Li12543  1  0.285473  0.022444  0.713493  1
  Li  Li12544  1  0.713493  0.022444  0.285473  1
  Li  Li12545  1  0.713493  0.977556  0.714527  1
  Li  Li12546  1  0.477556  0.786507  0.285473  1
  Li  Li12547  1  0.286507  0.022444  0.714527  1
  Li  Li12548  1  0.522444  0.213493  0.285473  1
  Li  Li12549  1  0.286507  0.977556  0.285473  1
  Li  Li12550  1  0.477556  0.213493  0.714527  1
  Li  Li12551  1  0.522444  0.786507  0.714527  1
  Li  Li12552  1  0.285473  0.713493  0.022444  1
  Li  Li12553  1  0.713493  0.714527  0.977556  1
  Li  Li12554  1  0.714527  0.286507  0.022444  1
  Li  Li12555  1  0.286507  0.285473  0.977556  1
  Li  Li12556  1  0.285473  0.286507  0.977556  1
  Li  Li12557  1  0.286507  0.714527  0.022444  1
  Li  Li12558  1  0.714527  0.713493  0.977556  1
  Li  Li12559  1  0.713493  0.285473  0.022444  1
  Li  Li12560  1  0.522444  0.285473  0.213493  1
  Li  Li12561  1  0.285473  0.477556  0.786507  1
  Li  Li12562  1  0.477556  0.714527  0.213493  1
  Li  Li12563  1  0.714527  0.522444  0.786507  1
  Li  Li12564  1  0.522444  0.714527  0.786507  1
  Li  Li12565  1  0.714527  0.477556  0.213493  1
  Li  Li12566  1  0.477556  0.285473  0.786507  1
  Li  Li12567  1  0.285473  0.522444  0.213493  1
  Li  Li12568  1  0.713493  0.522444  0.785473  1
  Li  Li12569  1  0.713493  0.477556  0.214527  1
  Li  Li12570  1  0.477556  0.286507  0.785473  1
  Li  Li12571  1  0.286507  0.522444  0.214527  1
  Li  Li12572  1  0.522444  0.713493  0.785473  1
  Li  Li12573  1  0.286507  0.477556  0.785473  1
  Li  Li12574  1  0.477556  0.713493  0.214527  1
  Li  Li12575  1  0.522444  0.286507  0.214527  1
  Li  Li12576  1  0.975563  0.195214  0.183192  1
  Li  Li12577  1  0.195214  0.024437  0.816808  1
  Li  Li12578  1  0.024437  0.804786  0.183192  1
  Li  Li12579  1  0.804786  0.975563  0.816808  1
  Li  Li12580  1  0.975563  0.804786  0.816808  1
  Li  Li12581  1  0.804786  0.024437  0.183192  1
  Li  Li12582  1  0.024437  0.195214  0.816808  1
  Li  Li12583  1  0.195214  0.975563  0.183192  1
  Li  Li12584  1  0.183192  0.975563  0.195214  1
  Li  Li12585  1  0.975563  0.816808  0.804786  1
  Li  Li12586  1  0.816808  0.024437  0.195214  1
  Li  Li12587  1  0.024437  0.183192  0.804786  1
  Li  Li12588  1  0.183192  0.024437  0.804786  1
  Li  Li12589  1  0.024437  0.816808  0.195214  1
  Li  Li12590  1  0.816808  0.975563  0.804786  1
  Li  Li12591  1  0.975563  0.183192  0.195214  1
  Li  Li12592  1  0.195214  0.183192  0.975563  1
  Li  Li12593  1  0.195214  0.816808  0.024437  1
  Li  Li12594  1  0.816808  0.804786  0.975563  1
  Li  Li12595  1  0.804786  0.183192  0.024437  1
  Li  Li12596  1  0.183192  0.195214  0.975563  1
  Li  Li12597  1  0.804786  0.816808  0.975563  1
  Li  Li12598  1  0.816808  0.195214  0.024437  1
  Li  Li12599  1  0.183192  0.804786  0.024437  1
  Li  Li12600  1  0.975563  0.695214  0.683192  1
  Li  Li12601  1  0.195214  0.524437  0.316808  1
  Li  Li12602  1  0.024437  0.304786  0.683192  1
  Li  Li12603  1  0.804786  0.475563  0.316808  1
  Li  Li12604  1  0.975563  0.304786  0.316808  1
  Li  Li12605  1  0.804786  0.524437  0.683192  1
  Li  Li12606  1  0.024437  0.695214  0.316808  1
  Li  Li12607  1  0.195214  0.475563  0.683192  1
  Li  Li12608  1  0.183192  0.475563  0.695214  1
  Li  Li12609  1  0.975563  0.316808  0.304786  1
  Li  Li12610  1  0.816808  0.524437  0.695214  1
  Li  Li12611  1  0.024437  0.683192  0.304786  1
  Li  Li12612  1  0.183192  0.524437  0.304786  1
  Li  Li12613  1  0.024437  0.316808  0.695214  1
  Li  Li12614  1  0.816808  0.475563  0.304786  1
  Li  Li12615  1  0.975563  0.683192  0.695214  1
  Li  Li12616  1  0.195214  0.683192  0.475563  1
  Li  Li12617  1  0.195214  0.316808  0.524437  1
  Li  Li12618  1  0.816808  0.304786  0.475563  1
  Li  Li12619  1  0.804786  0.683192  0.524437  1
  Li  Li12620  1  0.183192  0.695214  0.475563  1
  Li  Li12621  1  0.804786  0.316808  0.475563  1
  Li  Li12622  1  0.816808  0.695214  0.524437  1
  Li  Li12623  1  0.183192  0.304786  0.524437  1
  Li  Li12624  1  0.475563  0.195214  0.683192  1
  Li  Li12625  1  0.695214  0.024437  0.316808  1
  Li  Li12626  1  0.524437  0.804786  0.683192  1
  Li  Li12627  1  0.304786  0.975563  0.316808  1
  Li  Li12628  1  0.475563  0.804786  0.316808  1
  Li  Li12629  1  0.304786  0.024437  0.683192  1
  Li  Li12630  1  0.524437  0.195214  0.316808  1
  Li  Li12631  1  0.695214  0.975563  0.683192  1
  Li  Li12632  1  0.683192  0.975563  0.695214  1
  Li  Li12633  1  0.475563  0.816808  0.304786  1
  Li  Li12634  1  0.316808  0.024437  0.695214  1
  Li  Li12635  1  0.524437  0.183192  0.304786  1
  Li  Li12636  1  0.683192  0.024437  0.304786  1
  Li  Li12637  1  0.524437  0.816808  0.695214  1
  Li  Li12638  1  0.316808  0.975563  0.304786  1
  Li  Li12639  1  0.475563  0.183192  0.695214  1
  Li  Li12640  1  0.695214  0.183192  0.475563  1
  Li  Li12641  1  0.695214  0.816808  0.524437  1
  Li  Li12642  1  0.316808  0.804786  0.475563  1
  Li  Li12643  1  0.304786  0.183192  0.524437  1
  Li  Li12644  1  0.683192  0.195214  0.475563  1
  Li  Li12645  1  0.304786  0.816808  0.475563  1
  Li  Li12646  1  0.316808  0.195214  0.524437  1
  Li  Li12647  1  0.683192  0.804786  0.524437  1
  Li  Li12648  1  0.475563  0.695214  0.183192  1
  Li  Li12649  1  0.695214  0.524437  0.816808  1
  Li  Li12650  1  0.524437  0.304786  0.183192  1
  Li  Li12651  1  0.304786  0.475563  0.816808  1
  Li  Li12652  1  0.475563  0.304786  0.816808  1
  Li  Li12653  1  0.304786  0.524437  0.183192  1
  Li  Li12654  1  0.524437  0.695214  0.816808  1
  Li  Li12655  1  0.695214  0.475563  0.183192  1
  Li  Li12656  1  0.683192  0.475563  0.195214  1
  Li  Li12657  1  0.475563  0.316808  0.804786  1
  Li  Li12658  1  0.316808  0.524437  0.195214  1
  Li  Li12659  1  0.524437  0.683192  0.804786  1
  Li  Li12660  1  0.683192  0.524437  0.804786  1
  Li  Li12661  1  0.524437  0.316808  0.195214  1
  Li  Li12662  1  0.316808  0.475563  0.804786  1
  Li  Li12663  1  0.475563  0.683192  0.195214  1
  Li  Li12664  1  0.695214  0.683192  0.975563  1
  Li  Li12665  1  0.695214  0.316808  0.024437  1
  Li  Li12666  1  0.316808  0.304786  0.975563  1
  Li  Li12667  1  0.304786  0.683192  0.024437  1
  Li  Li12668  1  0.683192  0.695214  0.975563  1
  Li  Li12669  1  0.304786  0.316808  0.975563  1
  Li  Li12670  1  0.316808  0.695214  0.024437  1
  Li  Li12671  1  0.683192  0.304786  0.024437  1
  Li  Li12672  1  0.780609  0.274656  0.473141  1
  Li  Li12673  1  0.274656  0.219391  0.526859  1
  Li  Li12674  1  0.219391  0.725344  0.473141  1
  Li  Li12675  1  0.725344  0.780609  0.526859  1
  Li  Li12676  1  0.780609  0.725344  0.526859  1
  Li  Li12677  1  0.725344  0.219391  0.473141  1
  Li  Li12678  1  0.219391  0.274656  0.526859  1
  Li  Li12679  1  0.274656  0.780609  0.473141  1
  Li  Li12680  1  0.473141  0.780609  0.274656  1
  Li  Li12681  1  0.780609  0.526859  0.725344  1
  Li  Li12682  1  0.526859  0.219391  0.274656  1
  Li  Li12683  1  0.219391  0.473141  0.725344  1
  Li  Li12684  1  0.473141  0.219391  0.725344  1
  Li  Li12685  1  0.219391  0.526859  0.274656  1
  Li  Li12686  1  0.526859  0.780609  0.725344  1
  Li  Li12687  1  0.780609  0.473141  0.274656  1
  Li  Li12688  1  0.274656  0.473141  0.780609  1
  Li  Li12689  1  0.274656  0.526859  0.219391  1
  Li  Li12690  1  0.526859  0.725344  0.780609  1
  Li  Li12691  1  0.725344  0.473141  0.219391  1
  Li  Li12692  1  0.473141  0.274656  0.780609  1
  Li  Li12693  1  0.725344  0.526859  0.780609  1
  Li  Li12694  1  0.526859  0.274656  0.219391  1
  Li  Li12695  1  0.473141  0.725344  0.219391  1
  Li  Li12696  1  0.780609  0.774656  0.973141  1
  Li  Li12697  1  0.274656  0.719391  0.026859  1
  Li  Li12698  1  0.219391  0.225344  0.973141  1
  Li  Li12699  1  0.725344  0.280609  0.026859  1
  Li  Li12700  1  0.780609  0.225344  0.026859  1
  Li  Li12701  1  0.725344  0.719391  0.973141  1
  Li  Li12702  1  0.219391  0.774656  0.026859  1
  Li  Li12703  1  0.274656  0.280609  0.973141  1
  Li  Li12704  1  0.473141  0.280609  0.774656  1
  Li  Li12705  1  0.780609  0.026859  0.225344  1
  Li  Li12706  1  0.526859  0.719391  0.774656  1
  Li  Li12707  1  0.219391  0.973141  0.225344  1
  Li  Li12708  1  0.473141  0.719391  0.225344  1
  Li  Li12709  1  0.219391  0.026859  0.774656  1
  Li  Li12710  1  0.526859  0.280609  0.225344  1
  Li  Li12711  1  0.780609  0.973141  0.774656  1
  Li  Li12712  1  0.274656  0.973141  0.280609  1
  Li  Li12713  1  0.274656  0.026859  0.719391  1
  Li  Li12714  1  0.526859  0.225344  0.280609  1
  Li  Li12715  1  0.725344  0.973141  0.719391  1
  Li  Li12716  1  0.473141  0.774656  0.280609  1
  Li  Li12717  1  0.725344  0.026859  0.280609  1
  Li  Li12718  1  0.526859  0.774656  0.719391  1
  Li  Li12719  1  0.473141  0.225344  0.719391  1
  Li  Li12720  1  0.280609  0.274656  0.973141  1
  Li  Li12721  1  0.774656  0.219391  0.026859  1
  Li  Li12722  1  0.719391  0.725344  0.973141  1
  Li  Li12723  1  0.225344  0.780609  0.026859  1
  Li  Li12724  1  0.280609  0.725344  0.026859  1
  Li  Li12725  1  0.225344  0.219391  0.973141  1
  Li  Li12726  1  0.719391  0.274656  0.026859  1
  Li  Li12727  1  0.774656  0.780609  0.973141  1
  Li  Li12728  1  0.973141  0.780609  0.774656  1
  Li  Li12729  1  0.280609  0.526859  0.225344  1
  Li  Li12730  1  0.026859  0.219391  0.774656  1
  Li  Li12731  1  0.719391  0.473141  0.225344  1
  Li  Li12732  1  0.973141  0.219391  0.225344  1
  Li  Li12733  1  0.719391  0.526859  0.774656  1
  Li  Li12734  1  0.026859  0.780609  0.225344  1
  Li  Li12735  1  0.280609  0.473141  0.774656  1
  Li  Li12736  1  0.774656  0.473141  0.280609  1
  Li  Li12737  1  0.774656  0.526859  0.719391  1
  Li  Li12738  1  0.026859  0.725344  0.280609  1
  Li  Li12739  1  0.225344  0.473141  0.719391  1
  Li  Li12740  1  0.973141  0.274656  0.280609  1
  Li  Li12741  1  0.225344  0.526859  0.280609  1
  Li  Li12742  1  0.026859  0.274656  0.719391  1
  Li  Li12743  1  0.973141  0.725344  0.719391  1
  Li  Li12744  1  0.280609  0.774656  0.473141  1
  Li  Li12745  1  0.774656  0.719391  0.526859  1
  Li  Li12746  1  0.719391  0.225344  0.473141  1
  Li  Li12747  1  0.225344  0.280609  0.526859  1
  Li  Li12748  1  0.280609  0.225344  0.526859  1
  Li  Li12749  1  0.225344  0.719391  0.473141  1
  Li  Li12750  1  0.719391  0.774656  0.526859  1
  Li  Li12751  1  0.774656  0.280609  0.473141  1
  Li  Li12752  1  0.973141  0.280609  0.274656  1
  Li  Li12753  1  0.280609  0.026859  0.725344  1
  Li  Li12754  1  0.026859  0.719391  0.274656  1
  Li  Li12755  1  0.719391  0.973141  0.725344  1
  Li  Li12756  1  0.973141  0.719391  0.725344  1
  Li  Li12757  1  0.719391  0.026859  0.274656  1
  Li  Li12758  1  0.026859  0.280609  0.725344  1
  Li  Li12759  1  0.280609  0.973141  0.274656  1
  Li  Li12760  1  0.774656  0.973141  0.780609  1
  Li  Li12761  1  0.774656  0.026859  0.219391  1
  Li  Li12762  1  0.026859  0.225344  0.780609  1
  Li  Li12763  1  0.225344  0.973141  0.219391  1
  Li  Li12764  1  0.973141  0.774656  0.780609  1
  Li  Li12765  1  0.225344  0.026859  0.780609  1
  Li  Li12766  1  0.026859  0.774656  0.219391  1
  Li  Li12767  1  0.973141  0.225344  0.219391  1
  Li  Li12768  1  0.591730  0.433482  0.234422  1
  Li  Li12769  1  0.433482  0.408270  0.765578  1
  Li  Li12770  1  0.408270  0.566518  0.234422  1
  Li  Li12771  1  0.566518  0.591730  0.765578  1
  Li  Li12772  1  0.591730  0.566518  0.765578  1
  Li  Li12773  1  0.566518  0.408270  0.234422  1
  Li  Li12774  1  0.408270  0.433482  0.765578  1
  Li  Li12775  1  0.433482  0.591730  0.234422  1
  Li  Li12776  1  0.234422  0.591730  0.433482  1
  Li  Li12777  1  0.591730  0.765578  0.566518  1
  Li  Li12778  1  0.765578  0.408270  0.433482  1
  Li  Li12779  1  0.408270  0.234422  0.566518  1
  Li  Li12780  1  0.234422  0.408270  0.566518  1
  Li  Li12781  1  0.408270  0.765578  0.433482  1
  Li  Li12782  1  0.765578  0.591730  0.566518  1
  Li  Li12783  1  0.591730  0.234422  0.433482  1
  Li  Li12784  1  0.433482  0.234422  0.591730  1
  Li  Li12785  1  0.433482  0.765578  0.408270  1
  Li  Li12786  1  0.765578  0.566518  0.591730  1
  Li  Li12787  1  0.566518  0.234422  0.408270  1
  Li  Li12788  1  0.234422  0.433482  0.591730  1
  Li  Li12789  1  0.566518  0.765578  0.591730  1
  Li  Li12790  1  0.765578  0.433482  0.408270  1
  Li  Li12791  1  0.234422  0.566518  0.408270  1
  Li  Li12792  1  0.591730  0.933482  0.734422  1
  Li  Li12793  1  0.433482  0.908270  0.265578  1
  Li  Li12794  1  0.408270  0.066518  0.734422  1
  Li  Li12795  1  0.566518  0.091730  0.265578  1
  Li  Li12796  1  0.591730  0.066518  0.265578  1
  Li  Li12797  1  0.566518  0.908270  0.734422  1
  Li  Li12798  1  0.408270  0.933482  0.265578  1
  Li  Li12799  1  0.433482  0.091730  0.734422  1
  Li  Li12800  1  0.234422  0.091730  0.933482  1
  Li  Li12801  1  0.591730  0.265578  0.066518  1
  Li  Li12802  1  0.765578  0.908270  0.933482  1
  Li  Li12803  1  0.408270  0.734422  0.066518  1
  Li  Li12804  1  0.234422  0.908270  0.066518  1
  Li  Li12805  1  0.408270  0.265578  0.933482  1
  Li  Li12806  1  0.765578  0.091730  0.066518  1
  Li  Li12807  1  0.591730  0.734422  0.933482  1
  Li  Li12808  1  0.433482  0.734422  0.091730  1
  Li  Li12809  1  0.433482  0.265578  0.908270  1
  Li  Li12810  1  0.765578  0.066518  0.091730  1
  Li  Li12811  1  0.566518  0.734422  0.908270  1
  Li  Li12812  1  0.234422  0.933482  0.091730  1
  Li  Li12813  1  0.566518  0.265578  0.091730  1
  Li  Li12814  1  0.765578  0.933482  0.908270  1
  Li  Li12815  1  0.234422  0.066518  0.908270  1
  Li  Li12816  1  0.091730  0.433482  0.734422  1
  Li  Li12817  1  0.933482  0.408270  0.265578  1
  Li  Li12818  1  0.908270  0.566518  0.734422  1
  Li  Li12819  1  0.066518  0.591730  0.265578  1
  Li  Li12820  1  0.091730  0.566518  0.265578  1
  Li  Li12821  1  0.066518  0.408270  0.734422  1
  Li  Li12822  1  0.908270  0.433482  0.265578  1
  Li  Li12823  1  0.933482  0.591730  0.734422  1
  Li  Li12824  1  0.734422  0.591730  0.933482  1
  Li  Li12825  1  0.091730  0.765578  0.066518  1
  Li  Li12826  1  0.265578  0.408270  0.933482  1
  Li  Li12827  1  0.908270  0.234422  0.066518  1
  Li  Li12828  1  0.734422  0.408270  0.066518  1
  Li  Li12829  1  0.908270  0.765578  0.933482  1
  Li  Li12830  1  0.265578  0.591730  0.066518  1
  Li  Li12831  1  0.091730  0.234422  0.933482  1
  Li  Li12832  1  0.933482  0.234422  0.091730  1
  Li  Li12833  1  0.933482  0.765578  0.908270  1
  Li  Li12834  1  0.265578  0.566518  0.091730  1
  Li  Li12835  1  0.066518  0.234422  0.908270  1
  Li  Li12836  1  0.734422  0.433482  0.091730  1
  Li  Li12837  1  0.066518  0.765578  0.091730  1
  Li  Li12838  1  0.265578  0.433482  0.908270  1
  Li  Li12839  1  0.734422  0.566518  0.908270  1
  Li  Li12840  1  0.091730  0.933482  0.234422  1
  Li  Li12841  1  0.933482  0.908270  0.765578  1
  Li  Li12842  1  0.908270  0.066518  0.234422  1
  Li  Li12843  1  0.066518  0.091730  0.765578  1
  Li  Li12844  1  0.091730  0.066518  0.765578  1
  Li  Li12845  1  0.066518  0.908270  0.234422  1
  Li  Li12846  1  0.908270  0.933482  0.765578  1
  Li  Li12847  1  0.933482  0.091730  0.234422  1
  Li  Li12848  1  0.734422  0.091730  0.433482  1
  Li  Li12849  1  0.091730  0.265578  0.566518  1
  Li  Li12850  1  0.265578  0.908270  0.433482  1
  Li  Li12851  1  0.908270  0.734422  0.566518  1
  Li  Li12852  1  0.734422  0.908270  0.566518  1
  Li  Li12853  1  0.908270  0.265578  0.433482  1
  Li  Li12854  1  0.265578  0.091730  0.566518  1
  Li  Li12855  1  0.091730  0.734422  0.433482  1
  Li  Li12856  1  0.933482  0.734422  0.591730  1
  Li  Li12857  1  0.933482  0.265578  0.408270  1
  Li  Li12858  1  0.265578  0.066518  0.591730  1
  Li  Li12859  1  0.066518  0.734422  0.408270  1
  Li  Li12860  1  0.734422  0.933482  0.591730  1
  Li  Li12861  1  0.066518  0.265578  0.591730  1
  Li  Li12862  1  0.265578  0.933482  0.408270  1
  Li  Li12863  1  0.734422  0.066518  0.408270  1
  Li  Li12864  1  0.812047  0.192783  0.027973  1
  Li  Li12865  1  0.192783  0.187953  0.972027  1
  Li  Li12866  1  0.187953  0.807217  0.027973  1
  Li  Li12867  1  0.807217  0.812047  0.972027  1
  Li  Li12868  1  0.812047  0.807217  0.972027  1
  Li  Li12869  1  0.807217  0.187953  0.027973  1
  Li  Li12870  1  0.187953  0.192783  0.972027  1
  Li  Li12871  1  0.192783  0.812047  0.027973  1
  Li  Li12872  1  0.027973  0.812047  0.192783  1
  Li  Li12873  1  0.812047  0.972027  0.807217  1
  Li  Li12874  1  0.972027  0.187953  0.192783  1
  Li  Li12875  1  0.187953  0.027973  0.807217  1
  Li  Li12876  1  0.027973  0.187953  0.807217  1
  Li  Li12877  1  0.187953  0.972027  0.192783  1
  Li  Li12878  1  0.972027  0.812047  0.807217  1
  Li  Li12879  1  0.812047  0.027973  0.192783  1
  Li  Li12880  1  0.192783  0.027973  0.812047  1
  Li  Li12881  1  0.192783  0.972027  0.187953  1
  Li  Li12882  1  0.972027  0.807217  0.812047  1
  Li  Li12883  1  0.807217  0.027973  0.187953  1
  Li  Li12884  1  0.027973  0.192783  0.812047  1
  Li  Li12885  1  0.807217  0.972027  0.812047  1
  Li  Li12886  1  0.972027  0.192783  0.187953  1
  Li  Li12887  1  0.027973  0.807217  0.187953  1
  Li  Li12888  1  0.812047  0.692783  0.527973  1
  Li  Li12889  1  0.192783  0.687953  0.472027  1
  Li  Li12890  1  0.187953  0.307217  0.527973  1
  Li  Li12891  1  0.807217  0.312047  0.472027  1
  Li  Li12892  1  0.812047  0.307217  0.472027  1
  Li  Li12893  1  0.807217  0.687953  0.527973  1
  Li  Li12894  1  0.187953  0.692783  0.472027  1
  Li  Li12895  1  0.192783  0.312047  0.527973  1
  Li  Li12896  1  0.027973  0.312047  0.692783  1
  Li  Li12897  1  0.812047  0.472027  0.307217  1
  Li  Li12898  1  0.972027  0.687953  0.692783  1
  Li  Li12899  1  0.187953  0.527973  0.307217  1
  Li  Li12900  1  0.027973  0.687953  0.307217  1
  Li  Li12901  1  0.187953  0.472027  0.692783  1
  Li  Li12902  1  0.972027  0.312047  0.307217  1
  Li  Li12903  1  0.812047  0.527973  0.692783  1
  Li  Li12904  1  0.192783  0.527973  0.312047  1
  Li  Li12905  1  0.192783  0.472027  0.687953  1
  Li  Li12906  1  0.972027  0.307217  0.312047  1
  Li  Li12907  1  0.807217  0.527973  0.687953  1
  Li  Li12908  1  0.027973  0.692783  0.312047  1
  Li  Li12909  1  0.807217  0.472027  0.312047  1
  Li  Li12910  1  0.972027  0.692783  0.687953  1
  Li  Li12911  1  0.027973  0.307217  0.687953  1
  Li  Li12912  1  0.312047  0.192783  0.527973  1
  Li  Li12913  1  0.692783  0.187953  0.472027  1
  Li  Li12914  1  0.687953  0.807217  0.527973  1
  Li  Li12915  1  0.307217  0.812047  0.472027  1
  Li  Li12916  1  0.312047  0.807217  0.472027  1
  Li  Li12917  1  0.307217  0.187953  0.527973  1
  Li  Li12918  1  0.687953  0.192783  0.472027  1
  Li  Li12919  1  0.692783  0.812047  0.527973  1
  Li  Li12920  1  0.527973  0.812047  0.692783  1
  Li  Li12921  1  0.312047  0.972027  0.307217  1
  Li  Li12922  1  0.472027  0.187953  0.692783  1
  Li  Li12923  1  0.687953  0.027973  0.307217  1
  Li  Li12924  1  0.527973  0.187953  0.307217  1
  Li  Li12925  1  0.687953  0.972027  0.692783  1
  Li  Li12926  1  0.472027  0.812047  0.307217  1
  Li  Li12927  1  0.312047  0.027973  0.692783  1
  Li  Li12928  1  0.692783  0.027973  0.312047  1
  Li  Li12929  1  0.692783  0.972027  0.687953  1
  Li  Li12930  1  0.472027  0.807217  0.312047  1
  Li  Li12931  1  0.307217  0.027973  0.687953  1
  Li  Li12932  1  0.527973  0.192783  0.312047  1
  Li  Li12933  1  0.307217  0.972027  0.312047  1
  Li  Li12934  1  0.472027  0.192783  0.687953  1
  Li  Li12935  1  0.527973  0.807217  0.687953  1
  Li  Li12936  1  0.312047  0.692783  0.027973  1
  Li  Li12937  1  0.692783  0.687953  0.972027  1
  Li  Li12938  1  0.687953  0.307217  0.027973  1
  Li  Li12939  1  0.307217  0.312047  0.972027  1
  Li  Li12940  1  0.312047  0.307217  0.972027  1
  Li  Li12941  1  0.307217  0.687953  0.027973  1
  Li  Li12942  1  0.687953  0.692783  0.972027  1
  Li  Li12943  1  0.692783  0.312047  0.027973  1
  Li  Li12944  1  0.527973  0.312047  0.192783  1
  Li  Li12945  1  0.312047  0.472027  0.807217  1
  Li  Li12946  1  0.472027  0.687953  0.192783  1
  Li  Li12947  1  0.687953  0.527973  0.807217  1
  Li  Li12948  1  0.527973  0.687953  0.807217  1
  Li  Li12949  1  0.687953  0.472027  0.192783  1
  Li  Li12950  1  0.472027  0.312047  0.807217  1
  Li  Li12951  1  0.312047  0.527973  0.192783  1
  Li  Li12952  1  0.692783  0.527973  0.812047  1
  Li  Li12953  1  0.692783  0.472027  0.187953  1
  Li  Li12954  1  0.472027  0.307217  0.812047  1
  Li  Li12955  1  0.307217  0.527973  0.187953  1
  Li  Li12956  1  0.527973  0.692783  0.812047  1
  Li  Li12957  1  0.307217  0.472027  0.812047  1
  Li  Li12958  1  0.472027  0.692783  0.187953  1
  Li  Li12959  1  0.527973  0.307217  0.187953  1
  Li  Li12960  1  0.934574  0.280314  0.417089  1
  Li  Li12961  1  0.280314  0.065426  0.582911  1
  Li  Li12962  1  0.065426  0.719686  0.417089  1
  Li  Li12963  1  0.719686  0.934574  0.582911  1
  Li  Li12964  1  0.934574  0.719686  0.582911  1
  Li  Li12965  1  0.719686  0.065426  0.417089  1
  Li  Li12966  1  0.065426  0.280314  0.582911  1
  Li  Li12967  1  0.280314  0.934574  0.417089  1
  Li  Li12968  1  0.417089  0.934574  0.280314  1
  Li  Li12969  1  0.934574  0.582911  0.719686  1
  Li  Li12970  1  0.582911  0.065426  0.280314  1
  Li  Li12971  1  0.065426  0.417089  0.719686  1
  Li  Li12972  1  0.417089  0.065426  0.719686  1
  Li  Li12973  1  0.065426  0.582911  0.280314  1
  Li  Li12974  1  0.582911  0.934574  0.719686  1
  Li  Li12975  1  0.934574  0.417089  0.280314  1
  Li  Li12976  1  0.280314  0.417089  0.934574  1
  Li  Li12977  1  0.280314  0.582911  0.065426  1
  Li  Li12978  1  0.582911  0.719686  0.934574  1
  Li  Li12979  1  0.719686  0.417089  0.065426  1
  Li  Li12980  1  0.417089  0.280314  0.934574  1
  Li  Li12981  1  0.719686  0.582911  0.934574  1
  Li  Li12982  1  0.582911  0.280314  0.065426  1
  Li  Li12983  1  0.417089  0.719686  0.065426  1
  Li  Li12984  1  0.934574  0.780314  0.917089  1
  Li  Li12985  1  0.280314  0.565426  0.082911  1
  Li  Li12986  1  0.065426  0.219686  0.917089  1
  Li  Li12987  1  0.719686  0.434574  0.082911  1
  Li  Li12988  1  0.934574  0.219686  0.082911  1
  Li  Li12989  1  0.719686  0.565426  0.917089  1
  Li  Li12990  1  0.065426  0.780314  0.082911  1
  Li  Li12991  1  0.280314  0.434574  0.917089  1
  Li  Li12992  1  0.417089  0.434574  0.780314  1
  Li  Li12993  1  0.934574  0.082911  0.219686  1
  Li  Li12994  1  0.582911  0.565426  0.780314  1
  Li  Li12995  1  0.065426  0.917089  0.219686  1
  Li  Li12996  1  0.417089  0.565426  0.219686  1
  Li  Li12997  1  0.065426  0.082911  0.780314  1
  Li  Li12998  1  0.582911  0.434574  0.219686  1
  Li  Li12999  1  0.934574  0.917089  0.780314  1
  Li  Li13000  1  0.280314  0.917089  0.434574  1
  Li  Li13001  1  0.280314  0.082911  0.565426  1
  Li  Li13002  1  0.582911  0.219686  0.434574  1
  Li  Li13003  1  0.719686  0.917089  0.565426  1
  Li  Li13004  1  0.417089  0.780314  0.434574  1
  Li  Li13005  1  0.719686  0.082911  0.434574  1
  Li  Li13006  1  0.582911  0.780314  0.565426  1
  Li  Li13007  1  0.417089  0.219686  0.565426  1
  Li  Li13008  1  0.434574  0.280314  0.917089  1
  Li  Li13009  1  0.780314  0.065426  0.082911  1
  Li  Li13010  1  0.565426  0.719686  0.917089  1
  Li  Li13011  1  0.219686  0.934574  0.082911  1
  Li  Li13012  1  0.434574  0.719686  0.082911  1
  Li  Li13013  1  0.219686  0.065426  0.917089  1
  Li  Li13014  1  0.565426  0.280314  0.082911  1
  Li  Li13015  1  0.780314  0.934574  0.917089  1
  Li  Li13016  1  0.917089  0.934574  0.780314  1
  Li  Li13017  1  0.434574  0.582911  0.219686  1
  Li  Li13018  1  0.082911  0.065426  0.780314  1
  Li  Li13019  1  0.565426  0.417089  0.219686  1
  Li  Li13020  1  0.917089  0.065426  0.219686  1
  Li  Li13021  1  0.565426  0.582911  0.780314  1
  Li  Li13022  1  0.082911  0.934574  0.219686  1
  Li  Li13023  1  0.434574  0.417089  0.780314  1
  Li  Li13024  1  0.780314  0.417089  0.434574  1
  Li  Li13025  1  0.780314  0.582911  0.565426  1
  Li  Li13026  1  0.082911  0.719686  0.434574  1
  Li  Li13027  1  0.219686  0.417089  0.565426  1
  Li  Li13028  1  0.917089  0.280314  0.434574  1
  Li  Li13029  1  0.219686  0.582911  0.434574  1
  Li  Li13030  1  0.082911  0.280314  0.565426  1
  Li  Li13031  1  0.917089  0.719686  0.565426  1
  Li  Li13032  1  0.434574  0.780314  0.417089  1
  Li  Li13033  1  0.780314  0.565426  0.582911  1
  Li  Li13034  1  0.565426  0.219686  0.417089  1
  Li  Li13035  1  0.219686  0.434574  0.582911  1
  Li  Li13036  1  0.434574  0.219686  0.582911  1
  Li  Li13037  1  0.219686  0.565426  0.417089  1
  Li  Li13038  1  0.565426  0.780314  0.582911  1
  Li  Li13039  1  0.780314  0.434574  0.417089  1
  Li  Li13040  1  0.917089  0.434574  0.280314  1
  Li  Li13041  1  0.434574  0.082911  0.719686  1
  Li  Li13042  1  0.082911  0.565426  0.280314  1
  Li  Li13043  1  0.565426  0.917089  0.719686  1
  Li  Li13044  1  0.917089  0.565426  0.719686  1
  Li  Li13045  1  0.565426  0.082911  0.280314  1
  Li  Li13046  1  0.082911  0.434574  0.719686  1
  Li  Li13047  1  0.434574  0.917089  0.280314  1
  Li  Li13048  1  0.780314  0.917089  0.934574  1
  Li  Li13049  1  0.780314  0.082911  0.065426  1
  Li  Li13050  1  0.082911  0.219686  0.934574  1
  Li  Li13051  1  0.219686  0.917089  0.065426  1
  Li  Li13052  1  0.917089  0.780314  0.934574  1
  Li  Li13053  1  0.219686  0.082911  0.934574  1
  Li  Li13054  1  0.082911  0.780314  0.065426  1
  Li  Li13055  1  0.917089  0.219686  0.065426  1
  Li  Li13056  1  0.773496  0.066105  0.097188  1
  Li  Li13057  1  0.066105  0.226504  0.902812  1
  Li  Li13058  1  0.226504  0.933895  0.097188  1
  Li  Li13059  1  0.933895  0.773496  0.902812  1
  Li  Li13060  1  0.773496  0.933895  0.902812  1
  Li  Li13061  1  0.933895  0.226504  0.097188  1
  Li  Li13062  1  0.226504  0.066105  0.902812  1
  Li  Li13063  1  0.066105  0.773496  0.097188  1
  Li  Li13064  1  0.097188  0.773496  0.066105  1
  Li  Li13065  1  0.773496  0.902812  0.933895  1
  Li  Li13066  1  0.902812  0.226504  0.066105  1
  Li  Li13067  1  0.226504  0.097188  0.933895  1
  Li  Li13068  1  0.097188  0.226504  0.933895  1
  Li  Li13069  1  0.226504  0.902812  0.066105  1
  Li  Li13070  1  0.902812  0.773496  0.933895  1
  Li  Li13071  1  0.773496  0.097188  0.066105  1
  Li  Li13072  1  0.066105  0.097188  0.773496  1
  Li  Li13073  1  0.066105  0.902812  0.226504  1
  Li  Li13074  1  0.902812  0.933895  0.773496  1
  Li  Li13075  1  0.933895  0.097188  0.226504  1
  Li  Li13076  1  0.097188  0.066105  0.773496  1
  Li  Li13077  1  0.933895  0.902812  0.773496  1
  Li  Li13078  1  0.902812  0.066105  0.226504  1
  Li  Li13079  1  0.097188  0.933895  0.226504  1
  Li  Li13080  1  0.773496  0.566105  0.597188  1
  Li  Li13081  1  0.066105  0.726504  0.402812  1
  Li  Li13082  1  0.226504  0.433895  0.597188  1
  Li  Li13083  1  0.933895  0.273496  0.402812  1
  Li  Li13084  1  0.773496  0.433895  0.402812  1
  Li  Li13085  1  0.933895  0.726504  0.597188  1
  Li  Li13086  1  0.226504  0.566105  0.402812  1
  Li  Li13087  1  0.066105  0.273496  0.597188  1
  Li  Li13088  1  0.097188  0.273496  0.566105  1
  Li  Li13089  1  0.773496  0.402812  0.433895  1
  Li  Li13090  1  0.902812  0.726504  0.566105  1
  Li  Li13091  1  0.226504  0.597188  0.433895  1
  Li  Li13092  1  0.097188  0.726504  0.433895  1
  Li  Li13093  1  0.226504  0.402812  0.566105  1
  Li  Li13094  1  0.902812  0.273496  0.433895  1
  Li  Li13095  1  0.773496  0.597188  0.566105  1
  Li  Li13096  1  0.066105  0.597188  0.273496  1
  Li  Li13097  1  0.066105  0.402812  0.726504  1
  Li  Li13098  1  0.902812  0.433895  0.273496  1
  Li  Li13099  1  0.933895  0.597188  0.726504  1
  Li  Li13100  1  0.097188  0.566105  0.273496  1
  Li  Li13101  1  0.933895  0.402812  0.273496  1
  Li  Li13102  1  0.902812  0.566105  0.726504  1
  Li  Li13103  1  0.097188  0.433895  0.726504  1
  Li  Li13104  1  0.273496  0.066105  0.597188  1
  Li  Li13105  1  0.566105  0.226504  0.402812  1
  Li  Li13106  1  0.726504  0.933895  0.597188  1
  Li  Li13107  1  0.433895  0.773496  0.402812  1
  Li  Li13108  1  0.273496  0.933895  0.402812  1
  Li  Li13109  1  0.433895  0.226504  0.597188  1
  Li  Li13110  1  0.726504  0.066105  0.402812  1
  Li  Li13111  1  0.566105  0.773496  0.597188  1
  Li  Li13112  1  0.597188  0.773496  0.566105  1
  Li  Li13113  1  0.273496  0.902812  0.433895  1
  Li  Li13114  1  0.402812  0.226504  0.566105  1
  Li  Li13115  1  0.726504  0.097188  0.433895  1
  Li  Li13116  1  0.597188  0.226504  0.433895  1
  Li  Li13117  1  0.726504  0.902812  0.566105  1
  Li  Li13118  1  0.402812  0.773496  0.433895  1
  Li  Li13119  1  0.273496  0.097188  0.566105  1
  Li  Li13120  1  0.566105  0.097188  0.273496  1
  Li  Li13121  1  0.566105  0.902812  0.726504  1
  Li  Li13122  1  0.402812  0.933895  0.273496  1
  Li  Li13123  1  0.433895  0.097188  0.726504  1
  Li  Li13124  1  0.597188  0.066105  0.273496  1
  Li  Li13125  1  0.433895  0.902812  0.273496  1
  Li  Li13126  1  0.402812  0.066105  0.726504  1
  Li  Li13127  1  0.597188  0.933895  0.726504  1
  Li  Li13128  1  0.273496  0.566105  0.097188  1
  Li  Li13129  1  0.566105  0.726504  0.902812  1
  Li  Li13130  1  0.726504  0.433895  0.097188  1
  Li  Li13131  1  0.433895  0.273496  0.902812  1
  Li  Li13132  1  0.273496  0.433895  0.902812  1
  Li  Li13133  1  0.433895  0.726504  0.097188  1
  Li  Li13134  1  0.726504  0.566105  0.902812  1
  Li  Li13135  1  0.566105  0.273496  0.097188  1
  Li  Li13136  1  0.597188  0.273496  0.066105  1
  Li  Li13137  1  0.273496  0.402812  0.933895  1
  Li  Li13138  1  0.402812  0.726504  0.066105  1
  Li  Li13139  1  0.726504  0.597188  0.933895  1
  Li  Li13140  1  0.597188  0.726504  0.933895  1
  Li  Li13141  1  0.726504  0.402812  0.066105  1
  Li  Li13142  1  0.402812  0.273496  0.933895  1
  Li  Li13143  1  0.273496  0.597188  0.066105  1
  Li  Li13144  1  0.566105  0.597188  0.773496  1
  Li  Li13145  1  0.566105  0.402812  0.226504  1
  Li  Li13146  1  0.402812  0.433895  0.773496  1
  Li  Li13147  1  0.433895  0.597188  0.226504  1
  Li  Li13148  1  0.597188  0.566105  0.773496  1
  Li  Li13149  1  0.433895  0.402812  0.773496  1
  Li  Li13150  1  0.402812  0.566105  0.226504  1
  Li  Li13151  1  0.597188  0.433895  0.226504  1
  Li  Li13152  1  0.966724  0.194774  0.178478  1
  Li  Li13153  1  0.194774  0.033276  0.821522  1
  Li  Li13154  1  0.033276  0.805226  0.178478  1
  Li  Li13155  1  0.805226  0.966724  0.821522  1
  Li  Li13156  1  0.966724  0.805226  0.821522  1
  Li  Li13157  1  0.805226  0.033276  0.178478  1
  Li  Li13158  1  0.033276  0.194774  0.821522  1
  Li  Li13159  1  0.194774  0.966724  0.178478  1
  Li  Li13160  1  0.178478  0.966724  0.194774  1
  Li  Li13161  1  0.966724  0.821522  0.805226  1
  Li  Li13162  1  0.821522  0.033276  0.194774  1
  Li  Li13163  1  0.033276  0.178478  0.805226  1
  Li  Li13164  1  0.178478  0.033276  0.805226  1
  Li  Li13165  1  0.033276  0.821522  0.194774  1
  Li  Li13166  1  0.821522  0.966724  0.805226  1
  Li  Li13167  1  0.966724  0.178478  0.194774  1
  Li  Li13168  1  0.194774  0.178478  0.966724  1
  Li  Li13169  1  0.194774  0.821522  0.033276  1
  Li  Li13170  1  0.821522  0.805226  0.966724  1
  Li  Li13171  1  0.805226  0.178478  0.033276  1
  Li  Li13172  1  0.178478  0.194774  0.966724  1
  Li  Li13173  1  0.805226  0.821522  0.966724  1
  Li  Li13174  1  0.821522  0.194774  0.033276  1
  Li  Li13175  1  0.178478  0.805226  0.033276  1
  Li  Li13176  1  0.966724  0.694774  0.678478  1
  Li  Li13177  1  0.194774  0.533276  0.321522  1
  Li  Li13178  1  0.033276  0.305226  0.678478  1
  Li  Li13179  1  0.805226  0.466724  0.321522  1
  Li  Li13180  1  0.966724  0.305226  0.321522  1
  Li  Li13181  1  0.805226  0.533276  0.678478  1
  Li  Li13182  1  0.033276  0.694774  0.321522  1
  Li  Li13183  1  0.194774  0.466724  0.678478  1
  Li  Li13184  1  0.178478  0.466724  0.694774  1
  Li  Li13185  1  0.966724  0.321522  0.305226  1
  Li  Li13186  1  0.821522  0.533276  0.694774  1
  Li  Li13187  1  0.033276  0.678478  0.305226  1
  Li  Li13188  1  0.178478  0.533276  0.305226  1
  Li  Li13189  1  0.033276  0.321522  0.694774  1
  Li  Li13190  1  0.821522  0.466724  0.305226  1
  Li  Li13191  1  0.966724  0.678478  0.694774  1
  Li  Li13192  1  0.194774  0.678478  0.466724  1
  Li  Li13193  1  0.194774  0.321522  0.533276  1
  Li  Li13194  1  0.821522  0.305226  0.466724  1
  Li  Li13195  1  0.805226  0.678478  0.533276  1
  Li  Li13196  1  0.178478  0.694774  0.466724  1
  Li  Li13197  1  0.805226  0.321522  0.466724  1
  Li  Li13198  1  0.821522  0.694774  0.533276  1
  Li  Li13199  1  0.178478  0.305226  0.533276  1
  Li  Li13200  1  0.466724  0.194774  0.678478  1
  Li  Li13201  1  0.694774  0.033276  0.321522  1
  Li  Li13202  1  0.533276  0.805226  0.678478  1
  Li  Li13203  1  0.305226  0.966724  0.321522  1
  Li  Li13204  1  0.466724  0.805226  0.321522  1
  Li  Li13205  1  0.305226  0.033276  0.678478  1
  Li  Li13206  1  0.533276  0.194774  0.321522  1
  Li  Li13207  1  0.694774  0.966724  0.678478  1
  Li  Li13208  1  0.678478  0.966724  0.694774  1
  Li  Li13209  1  0.466724  0.821522  0.305226  1
  Li  Li13210  1  0.321522  0.033276  0.694774  1
  Li  Li13211  1  0.533276  0.178478  0.305226  1
  Li  Li13212  1  0.678478  0.033276  0.305226  1
  Li  Li13213  1  0.533276  0.821522  0.694774  1
  Li  Li13214  1  0.321522  0.966724  0.305226  1
  Li  Li13215  1  0.466724  0.178478  0.694774  1
  Li  Li13216  1  0.694774  0.178478  0.466724  1
  Li  Li13217  1  0.694774  0.821522  0.533276  1
  Li  Li13218  1  0.321522  0.805226  0.466724  1
  Li  Li13219  1  0.305226  0.178478  0.533276  1
  Li  Li13220  1  0.678478  0.194774  0.466724  1
  Li  Li13221  1  0.305226  0.821522  0.466724  1
  Li  Li13222  1  0.321522  0.194774  0.533276  1
  Li  Li13223  1  0.678478  0.805226  0.533276  1
  Li  Li13224  1  0.466724  0.694774  0.178478  1
  Li  Li13225  1  0.694774  0.533276  0.821522  1
  Li  Li13226  1  0.533276  0.305226  0.178478  1
  Li  Li13227  1  0.305226  0.466724  0.821522  1
  Li  Li13228  1  0.466724  0.305226  0.821522  1
  Li  Li13229  1  0.305226  0.533276  0.178478  1
  Li  Li13230  1  0.533276  0.694774  0.821522  1
  Li  Li13231  1  0.694774  0.466724  0.178478  1
  Li  Li13232  1  0.678478  0.466724  0.194774  1
  Li  Li13233  1  0.466724  0.321522  0.805226  1
  Li  Li13234  1  0.321522  0.533276  0.194774  1
  Li  Li13235  1  0.533276  0.678478  0.805226  1
  Li  Li13236  1  0.678478  0.533276  0.805226  1
  Li  Li13237  1  0.533276  0.321522  0.194774  1
  Li  Li13238  1  0.321522  0.466724  0.805226  1
  Li  Li13239  1  0.466724  0.678478  0.194774  1
  Li  Li13240  1  0.694774  0.678478  0.966724  1
  Li  Li13241  1  0.694774  0.321522  0.033276  1
  Li  Li13242  1  0.321522  0.305226  0.966724  1
  Li  Li13243  1  0.305226  0.678478  0.033276  1
  Li  Li13244  1  0.678478  0.694774  0.966724  1
  Li  Li13245  1  0.305226  0.321522  0.966724  1
  Li  Li13246  1  0.321522  0.694774  0.033276  1
  Li  Li13247  1  0.678478  0.305226  0.033276  1
  Li  Li13248  1  0.788504  0.280692  0.481775  1
  Li  Li13249  1  0.280692  0.211496  0.518225  1
  Li  Li13250  1  0.211496  0.719308  0.481775  1
  Li  Li13251  1  0.719308  0.788504  0.518225  1
  Li  Li13252  1  0.788504  0.719308  0.518225  1
  Li  Li13253  1  0.719308  0.211496  0.481775  1
  Li  Li13254  1  0.211496  0.280692  0.518225  1
  Li  Li13255  1  0.280692  0.788504  0.481775  1
  Li  Li13256  1  0.481775  0.788504  0.280692  1
  Li  Li13257  1  0.788504  0.518225  0.719308  1
  Li  Li13258  1  0.518225  0.211496  0.280692  1
  Li  Li13259  1  0.211496  0.481775  0.719308  1
  Li  Li13260  1  0.481775  0.211496  0.719308  1
  Li  Li13261  1  0.211496  0.518225  0.280692  1
  Li  Li13262  1  0.518225  0.788504  0.719308  1
  Li  Li13263  1  0.788504  0.481775  0.280692  1
  Li  Li13264  1  0.280692  0.481775  0.788504  1
  Li  Li13265  1  0.280692  0.518225  0.211496  1
  Li  Li13266  1  0.518225  0.719308  0.788504  1
  Li  Li13267  1  0.719308  0.481775  0.211496  1
  Li  Li13268  1  0.481775  0.280692  0.788504  1
  Li  Li13269  1  0.719308  0.518225  0.788504  1
  Li  Li13270  1  0.518225  0.280692  0.211496  1
  Li  Li13271  1  0.481775  0.719308  0.211496  1
  Li  Li13272  1  0.788504  0.780692  0.981775  1
  Li  Li13273  1  0.280692  0.711496  0.018225  1
  Li  Li13274  1  0.211496  0.219308  0.981775  1
  Li  Li13275  1  0.719308  0.288504  0.018225  1
  Li  Li13276  1  0.788504  0.219308  0.018225  1
  Li  Li13277  1  0.719308  0.711496  0.981775  1
  Li  Li13278  1  0.211496  0.780692  0.018225  1
  Li  Li13279  1  0.280692  0.288504  0.981775  1
  Li  Li13280  1  0.481775  0.288504  0.780692  1
  Li  Li13281  1  0.788504  0.018225  0.219308  1
  Li  Li13282  1  0.518225  0.711496  0.780692  1
  Li  Li13283  1  0.211496  0.981775  0.219308  1
  Li  Li13284  1  0.481775  0.711496  0.219308  1
  Li  Li13285  1  0.211496  0.018225  0.780692  1
  Li  Li13286  1  0.518225  0.288504  0.219308  1
  Li  Li13287  1  0.788504  0.981775  0.780692  1
  Li  Li13288  1  0.280692  0.981775  0.288504  1
  Li  Li13289  1  0.280692  0.018225  0.711496  1
  Li  Li13290  1  0.518225  0.219308  0.288504  1
  Li  Li13291  1  0.719308  0.981775  0.711496  1
  Li  Li13292  1  0.481775  0.780692  0.288504  1
  Li  Li13293  1  0.719308  0.018225  0.288504  1
  Li  Li13294  1  0.518225  0.780692  0.711496  1
  Li  Li13295  1  0.481775  0.219308  0.711496  1
  Li  Li13296  1  0.288504  0.280692  0.981775  1
  Li  Li13297  1  0.780692  0.211496  0.018225  1
  Li  Li13298  1  0.711496  0.719308  0.981775  1
  Li  Li13299  1  0.219308  0.788504  0.018225  1
  Li  Li13300  1  0.288504  0.719308  0.018225  1
  Li  Li13301  1  0.219308  0.211496  0.981775  1
  Li  Li13302  1  0.711496  0.280692  0.018225  1
  Li  Li13303  1  0.780692  0.788504  0.981775  1
  Li  Li13304  1  0.981775  0.788504  0.780692  1
  Li  Li13305  1  0.288504  0.518225  0.219308  1
  Li  Li13306  1  0.018225  0.211496  0.780692  1
  Li  Li13307  1  0.711496  0.481775  0.219308  1
  Li  Li13308  1  0.981775  0.211496  0.219308  1
  Li  Li13309  1  0.711496  0.518225  0.780692  1
  Li  Li13310  1  0.018225  0.788504  0.219308  1
  Li  Li13311  1  0.288504  0.481775  0.780692  1
  Li  Li13312  1  0.780692  0.481775  0.288504  1
  Li  Li13313  1  0.780692  0.518225  0.711496  1
  Li  Li13314  1  0.018225  0.719308  0.288504  1
  Li  Li13315  1  0.219308  0.481775  0.711496  1
  Li  Li13316  1  0.981775  0.280692  0.288504  1
  Li  Li13317  1  0.219308  0.518225  0.288504  1
  Li  Li13318  1  0.018225  0.280692  0.711496  1
  Li  Li13319  1  0.981775  0.719308  0.711496  1
  Li  Li13320  1  0.288504  0.780692  0.481775  1
  Li  Li13321  1  0.780692  0.711496  0.518225  1
  Li  Li13322  1  0.711496  0.219308  0.481775  1
  Li  Li13323  1  0.219308  0.288504  0.518225  1
  Li  Li13324  1  0.288504  0.219308  0.518225  1
  Li  Li13325  1  0.219308  0.711496  0.481775  1
  Li  Li13326  1  0.711496  0.780692  0.518225  1
  Li  Li13327  1  0.780692  0.288504  0.481775  1
  Li  Li13328  1  0.981775  0.288504  0.280692  1
  Li  Li13329  1  0.288504  0.018225  0.719308  1
  Li  Li13330  1  0.018225  0.711496  0.280692  1
  Li  Li13331  1  0.711496  0.981775  0.719308  1
  Li  Li13332  1  0.981775  0.711496  0.719308  1
  Li  Li13333  1  0.711496  0.018225  0.280692  1
  Li  Li13334  1  0.018225  0.288504  0.719308  1
  Li  Li13335  1  0.288504  0.981775  0.280692  1
  Li  Li13336  1  0.780692  0.981775  0.788504  1
  Li  Li13337  1  0.780692  0.018225  0.211496  1
  Li  Li13338  1  0.018225  0.219308  0.788504  1
  Li  Li13339  1  0.219308  0.981775  0.211496  1
  Li  Li13340  1  0.981775  0.780692  0.788504  1
  Li  Li13341  1  0.219308  0.018225  0.788504  1
  Li  Li13342  1  0.018225  0.780692  0.211496  1
  Li  Li13343  1  0.981775  0.219308  0.211496  1
  Li  Li13344  1  0.524821  0.205641  0.317857  1
  Li  Li13345  1  0.205641  0.475179  0.682143  1
  Li  Li13346  1  0.475179  0.794359  0.317857  1
  Li  Li13347  1  0.794359  0.524821  0.682143  1
  Li  Li13348  1  0.524821  0.794359  0.682143  1
  Li  Li13349  1  0.794359  0.475179  0.317857  1
  Li  Li13350  1  0.475179  0.205641  0.682143  1
  Li  Li13351  1  0.205641  0.524821  0.317857  1
  Li  Li13352  1  0.317857  0.524821  0.205641  1
  Li  Li13353  1  0.524821  0.682143  0.794359  1
  Li  Li13354  1  0.682143  0.475179  0.205641  1
  Li  Li13355  1  0.475179  0.317857  0.794359  1
  Li  Li13356  1  0.317857  0.475179  0.794359  1
  Li  Li13357  1  0.475179  0.682143  0.205641  1
  Li  Li13358  1  0.682143  0.524821  0.794359  1
  Li  Li13359  1  0.524821  0.317857  0.205641  1
  Li  Li13360  1  0.205641  0.317857  0.524821  1
  Li  Li13361  1  0.205641  0.682143  0.475179  1
  Li  Li13362  1  0.682143  0.794359  0.524821  1
  Li  Li13363  1  0.794359  0.317857  0.475179  1
  Li  Li13364  1  0.317857  0.205641  0.524821  1
  Li  Li13365  1  0.794359  0.682143  0.524821  1
  Li  Li13366  1  0.682143  0.205641  0.475179  1
  Li  Li13367  1  0.317857  0.794359  0.475179  1
  Li  Li13368  1  0.524821  0.705641  0.817857  1
  Li  Li13369  1  0.205641  0.975179  0.182143  1
  Li  Li13370  1  0.475179  0.294359  0.817857  1
  Li  Li13371  1  0.794359  0.024821  0.182143  1
  Li  Li13372  1  0.524821  0.294359  0.182143  1
  Li  Li13373  1  0.794359  0.975179  0.817857  1
  Li  Li13374  1  0.475179  0.705641  0.182143  1
  Li  Li13375  1  0.205641  0.024821  0.817857  1
  Li  Li13376  1  0.317857  0.024821  0.705641  1
  Li  Li13377  1  0.524821  0.182143  0.294359  1
  Li  Li13378  1  0.682143  0.975179  0.705641  1
  Li  Li13379  1  0.475179  0.817857  0.294359  1
  Li  Li13380  1  0.317857  0.975179  0.294359  1
  Li  Li13381  1  0.475179  0.182143  0.705641  1
  Li  Li13382  1  0.682143  0.024821  0.294359  1
  Li  Li13383  1  0.524821  0.817857  0.705641  1
  Li  Li13384  1  0.205641  0.817857  0.024821  1
  Li  Li13385  1  0.205641  0.182143  0.975179  1
  Li  Li13386  1  0.682143  0.294359  0.024821  1
  Li  Li13387  1  0.794359  0.817857  0.975179  1
  Li  Li13388  1  0.317857  0.705641  0.024821  1
  Li  Li13389  1  0.794359  0.182143  0.024821  1
  Li  Li13390  1  0.682143  0.705641  0.975179  1
  Li  Li13391  1  0.317857  0.294359  0.975179  1
  Li  Li13392  1  0.024821  0.205641  0.817857  1
  Li  Li13393  1  0.705641  0.475179  0.182143  1
  Li  Li13394  1  0.975179  0.794359  0.817857  1
  Li  Li13395  1  0.294359  0.524821  0.182143  1
  Li  Li13396  1  0.024821  0.794359  0.182143  1
  Li  Li13397  1  0.294359  0.475179  0.817857  1
  Li  Li13398  1  0.975179  0.205641  0.182143  1
  Li  Li13399  1  0.705641  0.524821  0.817857  1
  Li  Li13400  1  0.817857  0.524821  0.705641  1
  Li  Li13401  1  0.024821  0.682143  0.294359  1
  Li  Li13402  1  0.182143  0.475179  0.705641  1
  Li  Li13403  1  0.975179  0.317857  0.294359  1
  Li  Li13404  1  0.817857  0.475179  0.294359  1
  Li  Li13405  1  0.975179  0.682143  0.705641  1
  Li  Li13406  1  0.182143  0.524821  0.294359  1
  Li  Li13407  1  0.024821  0.317857  0.705641  1
  Li  Li13408  1  0.705641  0.317857  0.024821  1
  Li  Li13409  1  0.705641  0.682143  0.975179  1
  Li  Li13410  1  0.182143  0.794359  0.024821  1
  Li  Li13411  1  0.294359  0.317857  0.975179  1
  Li  Li13412  1  0.817857  0.205641  0.024821  1
  Li  Li13413  1  0.294359  0.682143  0.024821  1
  Li  Li13414  1  0.182143  0.205641  0.975179  1
  Li  Li13415  1  0.817857  0.794359  0.975179  1
  Li  Li13416  1  0.024821  0.705641  0.317857  1
  Li  Li13417  1  0.705641  0.975179  0.682143  1
  Li  Li13418  1  0.975179  0.294359  0.317857  1
  Li  Li13419  1  0.294359  0.024821  0.682143  1
  Li  Li13420  1  0.024821  0.294359  0.682143  1
  Li  Li13421  1  0.294359  0.975179  0.317857  1
  Li  Li13422  1  0.975179  0.705641  0.682143  1
  Li  Li13423  1  0.705641  0.024821  0.317857  1
  Li  Li13424  1  0.817857  0.024821  0.205641  1
  Li  Li13425  1  0.024821  0.182143  0.794359  1
  Li  Li13426  1  0.182143  0.975179  0.205641  1
  Li  Li13427  1  0.975179  0.817857  0.794359  1
  Li  Li13428  1  0.817857  0.975179  0.794359  1
  Li  Li13429  1  0.975179  0.182143  0.205641  1
  Li  Li13430  1  0.182143  0.024821  0.794359  1
  Li  Li13431  1  0.024821  0.817857  0.205641  1
  Li  Li13432  1  0.705641  0.817857  0.524821  1
  Li  Li13433  1  0.705641  0.182143  0.475179  1
  Li  Li13434  1  0.182143  0.294359  0.524821  1
  Li  Li13435  1  0.294359  0.817857  0.475179  1
  Li  Li13436  1  0.817857  0.705641  0.524821  1
  Li  Li13437  1  0.294359  0.182143  0.524821  1
  Li  Li13438  1  0.182143  0.705641  0.475179  1
  Li  Li13439  1  0.817857  0.294359  0.475179  1
  Li  Li13440  1  0.699310  0.278746  0.018405  1
  Li  Li13441  1  0.278746  0.300690  0.981595  1
  Li  Li13442  1  0.300690  0.721254  0.018405  1
  Li  Li13443  1  0.721254  0.699310  0.981595  1
  Li  Li13444  1  0.699310  0.721254  0.981595  1
  Li  Li13445  1  0.721254  0.300690  0.018405  1
  Li  Li13446  1  0.300690  0.278746  0.981595  1
  Li  Li13447  1  0.278746  0.699310  0.018405  1
  Li  Li13448  1  0.018405  0.699310  0.278746  1
  Li  Li13449  1  0.699310  0.981595  0.721254  1
  Li  Li13450  1  0.981595  0.300690  0.278746  1
  Li  Li13451  1  0.300690  0.018405  0.721254  1
  Li  Li13452  1  0.018405  0.300690  0.721254  1
  Li  Li13453  1  0.300690  0.981595  0.278746  1
  Li  Li13454  1  0.981595  0.699310  0.721254  1
  Li  Li13455  1  0.699310  0.018405  0.278746  1
  Li  Li13456  1  0.278746  0.018405  0.699310  1
  Li  Li13457  1  0.278746  0.981595  0.300690  1
  Li  Li13458  1  0.981595  0.721254  0.699310  1
  Li  Li13459  1  0.721254  0.018405  0.300690  1
  Li  Li13460  1  0.018405  0.278746  0.699310  1
  Li  Li13461  1  0.721254  0.981595  0.699310  1
  Li  Li13462  1  0.981595  0.278746  0.300690  1
  Li  Li13463  1  0.018405  0.721254  0.300690  1
  Li  Li13464  1  0.699310  0.778746  0.518405  1
  Li  Li13465  1  0.278746  0.800690  0.481595  1
  Li  Li13466  1  0.300690  0.221254  0.518405  1
  Li  Li13467  1  0.721254  0.199310  0.481595  1
  Li  Li13468  1  0.699310  0.221254  0.481595  1
  Li  Li13469  1  0.721254  0.800690  0.518405  1
  Li  Li13470  1  0.300690  0.778746  0.481595  1
  Li  Li13471  1  0.278746  0.199310  0.518405  1
  Li  Li13472  1  0.018405  0.199310  0.778746  1
  Li  Li13473  1  0.699310  0.481595  0.221254  1
  Li  Li13474  1  0.981595  0.800690  0.778746  1
  Li  Li13475  1  0.300690  0.518405  0.221254  1
  Li  Li13476  1  0.018405  0.800690  0.221254  1
  Li  Li13477  1  0.300690  0.481595  0.778746  1
  Li  Li13478  1  0.981595  0.199310  0.221254  1
  Li  Li13479  1  0.699310  0.518405  0.778746  1
  Li  Li13480  1  0.278746  0.518405  0.199310  1
  Li  Li13481  1  0.278746  0.481595  0.800690  1
  Li  Li13482  1  0.981595  0.221254  0.199310  1
  Li  Li13483  1  0.721254  0.518405  0.800690  1
  Li  Li13484  1  0.018405  0.778746  0.199310  1
  Li  Li13485  1  0.721254  0.481595  0.199310  1
  Li  Li13486  1  0.981595  0.778746  0.800690  1
  Li  Li13487  1  0.018405  0.221254  0.800690  1
  Li  Li13488  1  0.199310  0.278746  0.518405  1
  Li  Li13489  1  0.778746  0.300690  0.481595  1
  Li  Li13490  1  0.800690  0.721254  0.518405  1
  Li  Li13491  1  0.221254  0.699310  0.481595  1
  Li  Li13492  1  0.199310  0.721254  0.481595  1
  Li  Li13493  1  0.221254  0.300690  0.518405  1
  Li  Li13494  1  0.800690  0.278746  0.481595  1
  Li  Li13495  1  0.778746  0.699310  0.518405  1
  Li  Li13496  1  0.518405  0.699310  0.778746  1
  Li  Li13497  1  0.199310  0.981595  0.221254  1
  Li  Li13498  1  0.481595  0.300690  0.778746  1
  Li  Li13499  1  0.800690  0.018405  0.221254  1
  Li  Li13500  1  0.518405  0.300690  0.221254  1
  Li  Li13501  1  0.800690  0.981595  0.778746  1
  Li  Li13502  1  0.481595  0.699310  0.221254  1
  Li  Li13503  1  0.199310  0.018405  0.778746  1
  Li  Li13504  1  0.778746  0.018405  0.199310  1
  Li  Li13505  1  0.778746  0.981595  0.800690  1
  Li  Li13506  1  0.481595  0.721254  0.199310  1
  Li  Li13507  1  0.221254  0.018405  0.800690  1
  Li  Li13508  1  0.518405  0.278746  0.199310  1
  Li  Li13509  1  0.221254  0.981595  0.199310  1
  Li  Li13510  1  0.481595  0.278746  0.800690  1
  Li  Li13511  1  0.518405  0.721254  0.800690  1
  Li  Li13512  1  0.199310  0.778746  0.018405  1
  Li  Li13513  1  0.778746  0.800690  0.981595  1
  Li  Li13514  1  0.800690  0.221254  0.018405  1
  Li  Li13515  1  0.221254  0.199310  0.981595  1
  Li  Li13516  1  0.199310  0.221254  0.981595  1
  Li  Li13517  1  0.221254  0.800690  0.018405  1
  Li  Li13518  1  0.800690  0.778746  0.981595  1
  Li  Li13519  1  0.778746  0.199310  0.018405  1
  Li  Li13520  1  0.518405  0.199310  0.278746  1
  Li  Li13521  1  0.199310  0.481595  0.721254  1
  Li  Li13522  1  0.481595  0.800690  0.278746  1
  Li  Li13523  1  0.800690  0.518405  0.721254  1
  Li  Li13524  1  0.518405  0.800690  0.721254  1
  Li  Li13525  1  0.800690  0.481595  0.278746  1
  Li  Li13526  1  0.481595  0.199310  0.721254  1
  Li  Li13527  1  0.199310  0.518405  0.278746  1
  Li  Li13528  1  0.778746  0.518405  0.699310  1
  Li  Li13529  1  0.778746  0.481595  0.300690  1
  Li  Li13530  1  0.481595  0.221254  0.699310  1
  Li  Li13531  1  0.221254  0.518405  0.300690  1
  Li  Li13532  1  0.518405  0.778746  0.699310  1
  Li  Li13533  1  0.221254  0.481595  0.699310  1
  Li  Li13534  1  0.481595  0.778746  0.300690  1
  Li  Li13535  1  0.518405  0.221254  0.300690  1
  Li  Li13536  1  0.933532  0.412024  0.258788  1
  Li  Li13537  1  0.412024  0.066468  0.741212  1
  Li  Li13538  1  0.066468  0.587976  0.258788  1
  Li  Li13539  1  0.587976  0.933532  0.741212  1
  Li  Li13540  1  0.933532  0.587976  0.741212  1
  Li  Li13541  1  0.587976  0.066468  0.258788  1
  Li  Li13542  1  0.066468  0.412024  0.741212  1
  Li  Li13543  1  0.412024  0.933532  0.258788  1
  Li  Li13544  1  0.258788  0.933532  0.412024  1
  Li  Li13545  1  0.933532  0.741212  0.587976  1
  Li  Li13546  1  0.741212  0.066468  0.412024  1
  Li  Li13547  1  0.066468  0.258788  0.587976  1
  Li  Li13548  1  0.258788  0.066468  0.587976  1
  Li  Li13549  1  0.066468  0.741212  0.412024  1
  Li  Li13550  1  0.741212  0.933532  0.587976  1
  Li  Li13551  1  0.933532  0.258788  0.412024  1
  Li  Li13552  1  0.412024  0.258788  0.933532  1
  Li  Li13553  1  0.412024  0.741212  0.066468  1
  Li  Li13554  1  0.741212  0.587976  0.933532  1
  Li  Li13555  1  0.587976  0.258788  0.066468  1
  Li  Li13556  1  0.258788  0.412024  0.933532  1
  Li  Li13557  1  0.587976  0.741212  0.933532  1
  Li  Li13558  1  0.741212  0.412024  0.066468  1
  Li  Li13559  1  0.258788  0.587976  0.066468  1
  Li  Li13560  1  0.933532  0.912024  0.758788  1
  Li  Li13561  1  0.412024  0.566468  0.241212  1
  Li  Li13562  1  0.066468  0.087976  0.758788  1
  Li  Li13563  1  0.587976  0.433532  0.241212  1
  Li  Li13564  1  0.933532  0.087976  0.241212  1
  Li  Li13565  1  0.587976  0.566468  0.758788  1
  Li  Li13566  1  0.066468  0.912024  0.241212  1
  Li  Li13567  1  0.412024  0.433532  0.758788  1
  Li  Li13568  1  0.258788  0.433532  0.912024  1
  Li  Li13569  1  0.933532  0.241212  0.087976  1
  Li  Li13570  1  0.741212  0.566468  0.912024  1
  Li  Li13571  1  0.066468  0.758788  0.087976  1
  Li  Li13572  1  0.258788  0.566468  0.087976  1
  Li  Li13573  1  0.066468  0.241212  0.912024  1
  Li  Li13574  1  0.741212  0.433532  0.087976  1
  Li  Li13575  1  0.933532  0.758788  0.912024  1
  Li  Li13576  1  0.412024  0.758788  0.433532  1
  Li  Li13577  1  0.412024  0.241212  0.566468  1
  Li  Li13578  1  0.741212  0.087976  0.433532  1
  Li  Li13579  1  0.587976  0.758788  0.566468  1
  Li  Li13580  1  0.258788  0.912024  0.433532  1
  Li  Li13581  1  0.587976  0.241212  0.433532  1
  Li  Li13582  1  0.741212  0.912024  0.566468  1
  Li  Li13583  1  0.258788  0.087976  0.566468  1
  Li  Li13584  1  0.433532  0.412024  0.758788  1
  Li  Li13585  1  0.912024  0.066468  0.241212  1
  Li  Li13586  1  0.566468  0.587976  0.758788  1
  Li  Li13587  1  0.087976  0.933532  0.241212  1
  Li  Li13588  1  0.433532  0.587976  0.241212  1
  Li  Li13589  1  0.087976  0.066468  0.758788  1
  Li  Li13590  1  0.566468  0.412024  0.241212  1
  Li  Li13591  1  0.912024  0.933532  0.758788  1
  Li  Li13592  1  0.758788  0.933532  0.912024  1
  Li  Li13593  1  0.433532  0.741212  0.087976  1
  Li  Li13594  1  0.241212  0.066468  0.912024  1
  Li  Li13595  1  0.566468  0.258788  0.087976  1
  Li  Li13596  1  0.758788  0.066468  0.087976  1
  Li  Li13597  1  0.566468  0.741212  0.912024  1
  Li  Li13598  1  0.241212  0.933532  0.087976  1
  Li  Li13599  1  0.433532  0.258788  0.912024  1
  Li  Li13600  1  0.912024  0.258788  0.433532  1
  Li  Li13601  1  0.912024  0.741212  0.566468  1
  Li  Li13602  1  0.241212  0.587976  0.433532  1
  Li  Li13603  1  0.087976  0.258788  0.566468  1
  Li  Li13604  1  0.758788  0.412024  0.433532  1
  Li  Li13605  1  0.087976  0.741212  0.433532  1
  Li  Li13606  1  0.241212  0.412024  0.566468  1
  Li  Li13607  1  0.758788  0.587976  0.566468  1
  Li  Li13608  1  0.433532  0.912024  0.258788  1
  Li  Li13609  1  0.912024  0.566468  0.741212  1
  Li  Li13610  1  0.566468  0.087976  0.258788  1
  Li  Li13611  1  0.087976  0.433532  0.741212  1
  Li  Li13612  1  0.433532  0.087976  0.741212  1
  Li  Li13613  1  0.087976  0.566468  0.258788  1
  Li  Li13614  1  0.566468  0.912024  0.741212  1
  Li  Li13615  1  0.912024  0.433532  0.258788  1
  Li  Li13616  1  0.758788  0.433532  0.412024  1
  Li  Li13617  1  0.433532  0.241212  0.587976  1
  Li  Li13618  1  0.241212  0.566468  0.412024  1
  Li  Li13619  1  0.566468  0.758788  0.587976  1
  Li  Li13620  1  0.758788  0.566468  0.587976  1
  Li  Li13621  1  0.566468  0.241212  0.412024  1
  Li  Li13622  1  0.241212  0.433532  0.587976  1
  Li  Li13623  1  0.433532  0.758788  0.412024  1
  Li  Li13624  1  0.912024  0.758788  0.933532  1
  Li  Li13625  1  0.912024  0.241212  0.066468  1
  Li  Li13626  1  0.241212  0.087976  0.933532  1
  Li  Li13627  1  0.087976  0.758788  0.066468  1
  Li  Li13628  1  0.758788  0.912024  0.933532  1
  Li  Li13629  1  0.087976  0.241212  0.933532  1
  Li  Li13630  1  0.241212  0.912024  0.066468  1
  Li  Li13631  1  0.758788  0.087976  0.066468  1
  Li  Li13632  1  0.979920  0.307684  0.280743  1
  Li  Li13633  1  0.307684  0.020080  0.719257  1
  Li  Li13634  1  0.020080  0.692316  0.280743  1
  Li  Li13635  1  0.692316  0.979920  0.719257  1
  Li  Li13636  1  0.979920  0.692316  0.719257  1
  Li  Li13637  1  0.692316  0.020080  0.280743  1
  Li  Li13638  1  0.020080  0.307684  0.719257  1
  Li  Li13639  1  0.307684  0.979920  0.280743  1
  Li  Li13640  1  0.280743  0.979920  0.307684  1
  Li  Li13641  1  0.979920  0.719257  0.692316  1
  Li  Li13642  1  0.719257  0.020080  0.307684  1
  Li  Li13643  1  0.020080  0.280743  0.692316  1
  Li  Li13644  1  0.280743  0.020080  0.692316  1
  Li  Li13645  1  0.020080  0.719257  0.307684  1
  Li  Li13646  1  0.719257  0.979920  0.692316  1
  Li  Li13647  1  0.979920  0.280743  0.307684  1
  Li  Li13648  1  0.307684  0.280743  0.979920  1
  Li  Li13649  1  0.307684  0.719257  0.020080  1
  Li  Li13650  1  0.719257  0.692316  0.979920  1
  Li  Li13651  1  0.692316  0.280743  0.020080  1
  Li  Li13652  1  0.280743  0.307684  0.979920  1
  Li  Li13653  1  0.692316  0.719257  0.979920  1
  Li  Li13654  1  0.719257  0.307684  0.020080  1
  Li  Li13655  1  0.280743  0.692316  0.020080  1
  Li  Li13656  1  0.979920  0.807684  0.780743  1
  Li  Li13657  1  0.307684  0.520080  0.219257  1
  Li  Li13658  1  0.020080  0.192316  0.780743  1
  Li  Li13659  1  0.692316  0.479920  0.219257  1
  Li  Li13660  1  0.979920  0.192316  0.219257  1
  Li  Li13661  1  0.692316  0.520080  0.780743  1
  Li  Li13662  1  0.020080  0.807684  0.219257  1
  Li  Li13663  1  0.307684  0.479920  0.780743  1
  Li  Li13664  1  0.280743  0.479920  0.807684  1
  Li  Li13665  1  0.979920  0.219257  0.192316  1
  Li  Li13666  1  0.719257  0.520080  0.807684  1
  Li  Li13667  1  0.020080  0.780743  0.192316  1
  Li  Li13668  1  0.280743  0.520080  0.192316  1
  Li  Li13669  1  0.020080  0.219257  0.807684  1
  Li  Li13670  1  0.719257  0.479920  0.192316  1
  Li  Li13671  1  0.979920  0.780743  0.807684  1
  Li  Li13672  1  0.307684  0.780743  0.479920  1
  Li  Li13673  1  0.307684  0.219257  0.520080  1
  Li  Li13674  1  0.719257  0.192316  0.479920  1
  Li  Li13675  1  0.692316  0.780743  0.520080  1
  Li  Li13676  1  0.280743  0.807684  0.479920  1
  Li  Li13677  1  0.692316  0.219257  0.479920  1
  Li  Li13678  1  0.719257  0.807684  0.520080  1
  Li  Li13679  1  0.280743  0.192316  0.520080  1
  Li  Li13680  1  0.479920  0.307684  0.780743  1
  Li  Li13681  1  0.807684  0.020080  0.219257  1
  Li  Li13682  1  0.520080  0.692316  0.780743  1
  Li  Li13683  1  0.192316  0.979920  0.219257  1
  Li  Li13684  1  0.479920  0.692316  0.219257  1
  Li  Li13685  1  0.192316  0.020080  0.780743  1
  Li  Li13686  1  0.520080  0.307684  0.219257  1
  Li  Li13687  1  0.807684  0.979920  0.780743  1
  Li  Li13688  1  0.780743  0.979920  0.807684  1
  Li  Li13689  1  0.479920  0.719257  0.192316  1
  Li  Li13690  1  0.219257  0.020080  0.807684  1
  Li  Li13691  1  0.520080  0.280743  0.192316  1
  Li  Li13692  1  0.780743  0.020080  0.192316  1
  Li  Li13693  1  0.520080  0.719257  0.807684  1
  Li  Li13694  1  0.219257  0.979920  0.192316  1
  Li  Li13695  1  0.479920  0.280743  0.807684  1
  Li  Li13696  1  0.807684  0.280743  0.479920  1
  Li  Li13697  1  0.807684  0.719257  0.520080  1
  Li  Li13698  1  0.219257  0.692316  0.479920  1
  Li  Li13699  1  0.192316  0.280743  0.520080  1
  Li  Li13700  1  0.780743  0.307684  0.479920  1
  Li  Li13701  1  0.192316  0.719257  0.479920  1
  Li  Li13702  1  0.219257  0.307684  0.520080  1
  Li  Li13703  1  0.780743  0.692316  0.520080  1
  Li  Li13704  1  0.479920  0.807684  0.280743  1
  Li  Li13705  1  0.807684  0.520080  0.719257  1
  Li  Li13706  1  0.520080  0.192316  0.280743  1
  Li  Li13707  1  0.192316  0.479920  0.719257  1
  Li  Li13708  1  0.479920  0.192316  0.719257  1
  Li  Li13709  1  0.192316  0.520080  0.280743  1
  Li  Li13710  1  0.520080  0.807684  0.719257  1
  Li  Li13711  1  0.807684  0.479920  0.280743  1
  Li  Li13712  1  0.780743  0.479920  0.307684  1
  Li  Li13713  1  0.479920  0.219257  0.692316  1
  Li  Li13714  1  0.219257  0.520080  0.307684  1
  Li  Li13715  1  0.520080  0.780743  0.692316  1
  Li  Li13716  1  0.780743  0.520080  0.692316  1
  Li  Li13717  1  0.520080  0.219257  0.307684  1
  Li  Li13718  1  0.219257  0.479920  0.692316  1
  Li  Li13719  1  0.479920  0.780743  0.307684  1
  Li  Li13720  1  0.807684  0.780743  0.979920  1
  Li  Li13721  1  0.807684  0.219257  0.020080  1
  Li  Li13722  1  0.219257  0.192316  0.979920  1
  Li  Li13723  1  0.192316  0.780743  0.020080  1
  Li  Li13724  1  0.780743  0.807684  0.979920  1
  Li  Li13725  1  0.192316  0.219257  0.979920  1
  Li  Li13726  1  0.219257  0.807684  0.020080  1
  Li  Li13727  1  0.780743  0.192316  0.020080  1
  Li  Li13728  1  0.653257  0.287088  0.049288  1
  Li  Li13729  1  0.287088  0.346743  0.950712  1
  Li  Li13730  1  0.346743  0.712912  0.049288  1
  Li  Li13731  1  0.712912  0.653257  0.950712  1
  Li  Li13732  1  0.653257  0.712912  0.950712  1
  Li  Li13733  1  0.712912  0.346743  0.049288  1
  Li  Li13734  1  0.346743  0.287088  0.950712  1
  Li  Li13735  1  0.287088  0.653257  0.049288  1
  Li  Li13736  1  0.049288  0.653257  0.287088  1
  Li  Li13737  1  0.653257  0.950712  0.712912  1
  Li  Li13738  1  0.950712  0.346743  0.287088  1
  Li  Li13739  1  0.346743  0.049288  0.712912  1
  Li  Li13740  1  0.049288  0.346743  0.712912  1
  Li  Li13741  1  0.346743  0.950712  0.287088  1
  Li  Li13742  1  0.950712  0.653257  0.712912  1
  Li  Li13743  1  0.653257  0.049288  0.287088  1
  Li  Li13744  1  0.287088  0.049288  0.653257  1
  Li  Li13745  1  0.287088  0.950712  0.346743  1
  Li  Li13746  1  0.950712  0.712912  0.653257  1
  Li  Li13747  1  0.712912  0.049288  0.346743  1
  Li  Li13748  1  0.049288  0.287088  0.653257  1
  Li  Li13749  1  0.712912  0.950712  0.653257  1
  Li  Li13750  1  0.950712  0.287088  0.346743  1
  Li  Li13751  1  0.049288  0.712912  0.346743  1
  Li  Li13752  1  0.653257  0.787088  0.549288  1
  Li  Li13753  1  0.287088  0.846743  0.450712  1
  Li  Li13754  1  0.346743  0.212912  0.549288  1
  Li  Li13755  1  0.712912  0.153257  0.450712  1
  Li  Li13756  1  0.653257  0.212912  0.450712  1
  Li  Li13757  1  0.712912  0.846743  0.549288  1
  Li  Li13758  1  0.346743  0.787088  0.450712  1
  Li  Li13759  1  0.287088  0.153257  0.549288  1
  Li  Li13760  1  0.049288  0.153257  0.787088  1
  Li  Li13761  1  0.653257  0.450712  0.212912  1
  Li  Li13762  1  0.950712  0.846743  0.787088  1
  Li  Li13763  1  0.346743  0.549288  0.212912  1
  Li  Li13764  1  0.049288  0.846743  0.212912  1
  Li  Li13765  1  0.346743  0.450712  0.787088  1
  Li  Li13766  1  0.950712  0.153257  0.212912  1
  Li  Li13767  1  0.653257  0.549288  0.787088  1
  Li  Li13768  1  0.287088  0.549288  0.153257  1
  Li  Li13769  1  0.287088  0.450712  0.846743  1
  Li  Li13770  1  0.950712  0.212912  0.153257  1
  Li  Li13771  1  0.712912  0.549288  0.846743  1
  Li  Li13772  1  0.049288  0.787088  0.153257  1
  Li  Li13773  1  0.712912  0.450712  0.153257  1
  Li  Li13774  1  0.950712  0.787088  0.846743  1
  Li  Li13775  1  0.049288  0.212912  0.846743  1
  Li  Li13776  1  0.153257  0.287088  0.549288  1
  Li  Li13777  1  0.787088  0.346743  0.450712  1
  Li  Li13778  1  0.846743  0.712912  0.549288  1
  Li  Li13779  1  0.212912  0.653257  0.450712  1
  Li  Li13780  1  0.153257  0.712912  0.450712  1
  Li  Li13781  1  0.212912  0.346743  0.549288  1
  Li  Li13782  1  0.846743  0.287088  0.450712  1
  Li  Li13783  1  0.787088  0.653257  0.549288  1
  Li  Li13784  1  0.549288  0.653257  0.787088  1
  Li  Li13785  1  0.153257  0.950712  0.212912  1
  Li  Li13786  1  0.450712  0.346743  0.787088  1
  Li  Li13787  1  0.846743  0.049288  0.212912  1
  Li  Li13788  1  0.549288  0.346743  0.212912  1
  Li  Li13789  1  0.846743  0.950712  0.787088  1
  Li  Li13790  1  0.450712  0.653257  0.212912  1
  Li  Li13791  1  0.153257  0.049288  0.787088  1
  Li  Li13792  1  0.787088  0.049288  0.153257  1
  Li  Li13793  1  0.787088  0.950712  0.846743  1
  Li  Li13794  1  0.450712  0.712912  0.153257  1
  Li  Li13795  1  0.212912  0.049288  0.846743  1
  Li  Li13796  1  0.549288  0.287088  0.153257  1
  Li  Li13797  1  0.212912  0.950712  0.153257  1
  Li  Li13798  1  0.450712  0.287088  0.846743  1
  Li  Li13799  1  0.549288  0.712912  0.846743  1
  Li  Li13800  1  0.153257  0.787088  0.049288  1
  Li  Li13801  1  0.787088  0.846743  0.950712  1
  Li  Li13802  1  0.846743  0.212912  0.049288  1
  Li  Li13803  1  0.212912  0.153257  0.950712  1
  Li  Li13804  1  0.153257  0.212912  0.950712  1
  Li  Li13805  1  0.212912  0.846743  0.049288  1
  Li  Li13806  1  0.846743  0.787088  0.950712  1
  Li  Li13807  1  0.787088  0.153257  0.049288  1
  Li  Li13808  1  0.549288  0.153257  0.287088  1
  Li  Li13809  1  0.153257  0.450712  0.712912  1
  Li  Li13810  1  0.450712  0.846743  0.287088  1
  Li  Li13811  1  0.846743  0.549288  0.712912  1
  Li  Li13812  1  0.549288  0.846743  0.712912  1
  Li  Li13813  1  0.846743  0.450712  0.287088  1
  Li  Li13814  1  0.450712  0.153257  0.712912  1
  Li  Li13815  1  0.153257  0.549288  0.287088  1
  Li  Li13816  1  0.787088  0.549288  0.653257  1
  Li  Li13817  1  0.787088  0.450712  0.346743  1
  Li  Li13818  1  0.450712  0.212912  0.653257  1
  Li  Li13819  1  0.212912  0.549288  0.346743  1
  Li  Li13820  1  0.549288  0.787088  0.653257  1
  Li  Li13821  1  0.212912  0.450712  0.653257  1
  Li  Li13822  1  0.450712  0.787088  0.346743  1
  Li  Li13823  1  0.549288  0.212912  0.346743  1
  Li  Li13824  1  0.982819  0.712860  0.709609  1
  Li  Li13825  1  0.712860  0.017181  0.290391  1
  Li  Li13826  1  0.017181  0.287140  0.709609  1
  Li  Li13827  1  0.287140  0.982819  0.290391  1
  Li  Li13828  1  0.982819  0.287140  0.290391  1
  Li  Li13829  1  0.287140  0.017181  0.709609  1
  Li  Li13830  1  0.017181  0.712860  0.290391  1
  Li  Li13831  1  0.712860  0.982819  0.709609  1
  Li  Li13832  1  0.709609  0.982819  0.712860  1
  Li  Li13833  1  0.982819  0.290391  0.287140  1
  Li  Li13834  1  0.290391  0.017181  0.712860  1
  Li  Li13835  1  0.017181  0.709609  0.287140  1
  Li  Li13836  1  0.709609  0.017181  0.287140  1
  Li  Li13837  1  0.017181  0.290391  0.712860  1
  Li  Li13838  1  0.290391  0.982819  0.287140  1
  Li  Li13839  1  0.982819  0.709609  0.712860  1
  Li  Li13840  1  0.712860  0.709609  0.982819  1
  Li  Li13841  1  0.712860  0.290391  0.017181  1
  Li  Li13842  1  0.290391  0.287140  0.982819  1
  Li  Li13843  1  0.287140  0.709609  0.017181  1
  Li  Li13844  1  0.709609  0.712860  0.982819  1
  Li  Li13845  1  0.287140  0.290391  0.982819  1
  Li  Li13846  1  0.290391  0.712860  0.017181  1
  Li  Li13847  1  0.709609  0.287140  0.017181  1
  Li  Li13848  1  0.982819  0.212860  0.209609  1
  Li  Li13849  1  0.712860  0.517181  0.790391  1
  Li  Li13850  1  0.017181  0.787140  0.209609  1
  Li  Li13851  1  0.287140  0.482819  0.790391  1
  Li  Li13852  1  0.982819  0.787140  0.790391  1
  Li  Li13853  1  0.287140  0.517181  0.209609  1
  Li  Li13854  1  0.017181  0.212860  0.790391  1
  Li  Li13855  1  0.712860  0.482819  0.209609  1
  Li  Li13856  1  0.709609  0.482819  0.212860  1
  Li  Li13857  1  0.982819  0.790391  0.787140  1
  Li  Li13858  1  0.290391  0.517181  0.212860  1
  Li  Li13859  1  0.017181  0.209609  0.787140  1
  Li  Li13860  1  0.709609  0.517181  0.787140  1
  Li  Li13861  1  0.017181  0.790391  0.212860  1
  Li  Li13862  1  0.290391  0.482819  0.787140  1
  Li  Li13863  1  0.982819  0.209609  0.212860  1
  Li  Li13864  1  0.712860  0.209609  0.482819  1
  Li  Li13865  1  0.712860  0.790391  0.517181  1
  Li  Li13866  1  0.290391  0.787140  0.482819  1
  Li  Li13867  1  0.287140  0.209609  0.517181  1
  Li  Li13868  1  0.709609  0.212860  0.482819  1
  Li  Li13869  1  0.287140  0.790391  0.482819  1
  Li  Li13870  1  0.290391  0.212860  0.517181  1
  Li  Li13871  1  0.709609  0.787140  0.517181  1
  Li  Li13872  1  0.482819  0.712860  0.209609  1
  Li  Li13873  1  0.212860  0.017181  0.790391  1
  Li  Li13874  1  0.517181  0.287140  0.209609  1
  Li  Li13875  1  0.787140  0.982819  0.790391  1
  Li  Li13876  1  0.482819  0.287140  0.790391  1
  Li  Li13877  1  0.787140  0.017181  0.209609  1
  Li  Li13878  1  0.517181  0.712860  0.790391  1
  Li  Li13879  1  0.212860  0.982819  0.209609  1
  Li  Li13880  1  0.209609  0.982819  0.212860  1
  Li  Li13881  1  0.482819  0.290391  0.787140  1
  Li  Li13882  1  0.790391  0.017181  0.212860  1
  Li  Li13883  1  0.517181  0.709609  0.787140  1
  Li  Li13884  1  0.209609  0.017181  0.787140  1
  Li  Li13885  1  0.517181  0.290391  0.212860  1
  Li  Li13886  1  0.790391  0.982819  0.787140  1
  Li  Li13887  1  0.482819  0.709609  0.212860  1
  Li  Li13888  1  0.212860  0.709609  0.482819  1
  Li  Li13889  1  0.212860  0.290391  0.517181  1
  Li  Li13890  1  0.790391  0.287140  0.482819  1
  Li  Li13891  1  0.787140  0.709609  0.517181  1
  Li  Li13892  1  0.209609  0.712860  0.482819  1
  Li  Li13893  1  0.787140  0.290391  0.482819  1
  Li  Li13894  1  0.790391  0.712860  0.517181  1
  Li  Li13895  1  0.209609  0.287140  0.517181  1
  Li  Li13896  1  0.482819  0.212860  0.709609  1
  Li  Li13897  1  0.212860  0.517181  0.290391  1
  Li  Li13898  1  0.517181  0.787140  0.709609  1
  Li  Li13899  1  0.787140  0.482819  0.290391  1
  Li  Li13900  1  0.482819  0.787140  0.290391  1
  Li  Li13901  1  0.787140  0.517181  0.709609  1
  Li  Li13902  1  0.517181  0.212860  0.290391  1
  Li  Li13903  1  0.212860  0.482819  0.709609  1
  Li  Li13904  1  0.209609  0.482819  0.712860  1
  Li  Li13905  1  0.482819  0.790391  0.287140  1
  Li  Li13906  1  0.790391  0.517181  0.712860  1
  Li  Li13907  1  0.517181  0.209609  0.287140  1
  Li  Li13908  1  0.209609  0.517181  0.287140  1
  Li  Li13909  1  0.517181  0.790391  0.712860  1
  Li  Li13910  1  0.790391  0.482819  0.287140  1
  Li  Li13911  1  0.482819  0.209609  0.712860  1
  Li  Li13912  1  0.212860  0.209609  0.982819  1
  Li  Li13913  1  0.212860  0.790391  0.017181  1
  Li  Li13914  1  0.790391  0.787140  0.982819  1
  Li  Li13915  1  0.787140  0.209609  0.017181  1
  Li  Li13916  1  0.209609  0.212860  0.982819  1
  Li  Li13917  1  0.787140  0.790391  0.982819  1
  Li  Li13918  1  0.790391  0.212860  0.017181  1
  Li  Li13919  1  0.209609  0.787140  0.017181  1
  Li  Li13920  1  0.525801  0.792416  0.724482  1
  Li  Li13921  1  0.792416  0.474199  0.275518  1
  Li  Li13922  1  0.474199  0.207584  0.724482  1
  Li  Li13923  1  0.207584  0.525801  0.275518  1
  Li  Li13924  1  0.525801  0.207584  0.275518  1
  Li  Li13925  1  0.207584  0.474199  0.724482  1
  Li  Li13926  1  0.474199  0.792416  0.275518  1
  Li  Li13927  1  0.792416  0.525801  0.724482  1
  Li  Li13928  1  0.724482  0.525801  0.792416  1
  Li  Li13929  1  0.525801  0.275518  0.207584  1
  Li  Li13930  1  0.275518  0.474199  0.792416  1
  Li  Li13931  1  0.474199  0.724482  0.207584  1
  Li  Li13932  1  0.724482  0.474199  0.207584  1
  Li  Li13933  1  0.474199  0.275518  0.792416  1
  Li  Li13934  1  0.275518  0.525801  0.207584  1
  Li  Li13935  1  0.525801  0.724482  0.792416  1
  Li  Li13936  1  0.792416  0.724482  0.525801  1
  Li  Li13937  1  0.792416  0.275518  0.474199  1
  Li  Li13938  1  0.275518  0.207584  0.525801  1
  Li  Li13939  1  0.207584  0.724482  0.474199  1
  Li  Li13940  1  0.724482  0.792416  0.525801  1
  Li  Li13941  1  0.207584  0.275518  0.525801  1
  Li  Li13942  1  0.275518  0.792416  0.474199  1
  Li  Li13943  1  0.724482  0.207584  0.474199  1
  Li  Li13944  1  0.525801  0.292416  0.224482  1
  Li  Li13945  1  0.792416  0.974199  0.775518  1
  Li  Li13946  1  0.474199  0.707584  0.224482  1
  Li  Li13947  1  0.207584  0.025801  0.775518  1
  Li  Li13948  1  0.525801  0.707584  0.775518  1
  Li  Li13949  1  0.207584  0.974199  0.224482  1
  Li  Li13950  1  0.474199  0.292416  0.775518  1
  Li  Li13951  1  0.792416  0.025801  0.224482  1
  Li  Li13952  1  0.724482  0.025801  0.292416  1
  Li  Li13953  1  0.525801  0.775518  0.707584  1
  Li  Li13954  1  0.275518  0.974199  0.292416  1
  Li  Li13955  1  0.474199  0.224482  0.707584  1
  Li  Li13956  1  0.724482  0.974199  0.707584  1
  Li  Li13957  1  0.474199  0.775518  0.292416  1
  Li  Li13958  1  0.275518  0.025801  0.707584  1
  Li  Li13959  1  0.525801  0.224482  0.292416  1
  Li  Li13960  1  0.792416  0.224482  0.025801  1
  Li  Li13961  1  0.792416  0.775518  0.974199  1
  Li  Li13962  1  0.275518  0.707584  0.025801  1
  Li  Li13963  1  0.207584  0.224482  0.974199  1
  Li  Li13964  1  0.724482  0.292416  0.025801  1
  Li  Li13965  1  0.207584  0.775518  0.025801  1
  Li  Li13966  1  0.275518  0.292416  0.974199  1
  Li  Li13967  1  0.724482  0.707584  0.974199  1
  Li  Li13968  1  0.025801  0.792416  0.224482  1
  Li  Li13969  1  0.292416  0.474199  0.775518  1
  Li  Li13970  1  0.974199  0.207584  0.224482  1
  Li  Li13971  1  0.707584  0.525801  0.775518  1
  Li  Li13972  1  0.025801  0.207584  0.775518  1
  Li  Li13973  1  0.707584  0.474199  0.224482  1
  Li  Li13974  1  0.974199  0.792416  0.775518  1
  Li  Li13975  1  0.292416  0.525801  0.224482  1
  Li  Li13976  1  0.224482  0.525801  0.292416  1
  Li  Li13977  1  0.025801  0.275518  0.707584  1
  Li  Li13978  1  0.775518  0.474199  0.292416  1
  Li  Li13979  1  0.974199  0.724482  0.707584  1
  Li  Li13980  1  0.224482  0.474199  0.707584  1
  Li  Li13981  1  0.974199  0.275518  0.292416  1
  Li  Li13982  1  0.775518  0.525801  0.707584  1
  Li  Li13983  1  0.025801  0.724482  0.292416  1
  Li  Li13984  1  0.292416  0.724482  0.025801  1
  Li  Li13985  1  0.292416  0.275518  0.974199  1
  Li  Li13986  1  0.775518  0.207584  0.025801  1
  Li  Li13987  1  0.707584  0.724482  0.974199  1
  Li  Li13988  1  0.224482  0.792416  0.025801  1
  Li  Li13989  1  0.707584  0.275518  0.025801  1
  Li  Li13990  1  0.775518  0.792416  0.974199  1
  Li  Li13991  1  0.224482  0.207584  0.974199  1
  Li  Li13992  1  0.025801  0.292416  0.724482  1
  Li  Li13993  1  0.292416  0.974199  0.275518  1
  Li  Li13994  1  0.974199  0.707584  0.724482  1
  Li  Li13995  1  0.707584  0.025801  0.275518  1
  Li  Li13996  1  0.025801  0.707584  0.275518  1
  Li  Li13997  1  0.707584  0.974199  0.724482  1
  Li  Li13998  1  0.974199  0.292416  0.275518  1
  Li  Li13999  1  0.292416  0.025801  0.724482  1
  Li  Li14000  1  0.224482  0.025801  0.792416  1
  Li  Li14001  1  0.025801  0.775518  0.207584  1
  Li  Li14002  1  0.775518  0.974199  0.792416  1
  Li  Li14003  1  0.974199  0.224482  0.207584  1
  Li  Li14004  1  0.224482  0.974199  0.207584  1
  Li  Li14005  1  0.974199  0.775518  0.792416  1
  Li  Li14006  1  0.775518  0.025801  0.207584  1
  Li  Li14007  1  0.025801  0.224482  0.792416  1
  Li  Li14008  1  0.292416  0.224482  0.525801  1
  Li  Li14009  1  0.292416  0.775518  0.474199  1
  Li  Li14010  1  0.775518  0.707584  0.525801  1
  Li  Li14011  1  0.707584  0.224482  0.474199  1
  Li  Li14012  1  0.224482  0.292416  0.525801  1
  Li  Li14013  1  0.707584  0.775518  0.525801  1
  Li  Li14014  1  0.775518  0.292416  0.474199  1
  Li  Li14015  1  0.224482  0.707584  0.474199  1
  Li  Li14016  1  0.580323  0.585978  0.770422  1
  Li  Li14017  1  0.585978  0.419677  0.229578  1
  Li  Li14018  1  0.419677  0.414022  0.770422  1
  Li  Li14019  1  0.414022  0.580323  0.229578  1
  Li  Li14020  1  0.580323  0.414022  0.229578  1
  Li  Li14021  1  0.414022  0.419677  0.770422  1
  Li  Li14022  1  0.419677  0.585978  0.229578  1
  Li  Li14023  1  0.585978  0.580323  0.770422  1
  Li  Li14024  1  0.770422  0.580323  0.585978  1
  Li  Li14025  1  0.580323  0.229578  0.414022  1
  Li  Li14026  1  0.229578  0.419677  0.585978  1
  Li  Li14027  1  0.419677  0.770422  0.414022  1
  Li  Li14028  1  0.770422  0.419677  0.414022  1
  Li  Li14029  1  0.419677  0.229578  0.585978  1
  Li  Li14030  1  0.229578  0.580323  0.414022  1
  Li  Li14031  1  0.580323  0.770422  0.585978  1
  Li  Li14032  1  0.585978  0.770422  0.580323  1
  Li  Li14033  1  0.585978  0.229578  0.419677  1
  Li  Li14034  1  0.229578  0.414022  0.580323  1
  Li  Li14035  1  0.414022  0.770422  0.419677  1
  Li  Li14036  1  0.770422  0.585978  0.580323  1
  Li  Li14037  1  0.414022  0.229578  0.580323  1
  Li  Li14038  1  0.229578  0.585978  0.419677  1
  Li  Li14039  1  0.770422  0.414022  0.419677  1
  Li  Li14040  1  0.580323  0.085978  0.270422  1
  Li  Li14041  1  0.585978  0.919677  0.729578  1
  Li  Li14042  1  0.419677  0.914022  0.270422  1
  Li  Li14043  1  0.414022  0.080323  0.729578  1
  Li  Li14044  1  0.580323  0.914022  0.729578  1
  Li  Li14045  1  0.414022  0.919677  0.270422  1
  Li  Li14046  1  0.419677  0.085978  0.729578  1
  Li  Li14047  1  0.585978  0.080323  0.270422  1
  Li  Li14048  1  0.770422  0.080323  0.085978  1
  Li  Li14049  1  0.580323  0.729578  0.914022  1
  Li  Li14050  1  0.229578  0.919677  0.085978  1
  Li  Li14051  1  0.419677  0.270422  0.914022  1
  Li  Li14052  1  0.770422  0.919677  0.914022  1
  Li  Li14053  1  0.419677  0.729578  0.085978  1
  Li  Li14054  1  0.229578  0.080323  0.914022  1
  Li  Li14055  1  0.580323  0.270422  0.085978  1
  Li  Li14056  1  0.585978  0.270422  0.080323  1
  Li  Li14057  1  0.585978  0.729578  0.919677  1
  Li  Li14058  1  0.229578  0.914022  0.080323  1
  Li  Li14059  1  0.414022  0.270422  0.919677  1
  Li  Li14060  1  0.770422  0.085978  0.080323  1
  Li  Li14061  1  0.414022  0.729578  0.080323  1
  Li  Li14062  1  0.229578  0.085978  0.919677  1
  Li  Li14063  1  0.770422  0.914022  0.919677  1
  Li  Li14064  1  0.080323  0.585978  0.270422  1
  Li  Li14065  1  0.085978  0.419677  0.729578  1
  Li  Li14066  1  0.919677  0.414022  0.270422  1
  Li  Li14067  1  0.914022  0.580323  0.729578  1
  Li  Li14068  1  0.080323  0.414022  0.729578  1
  Li  Li14069  1  0.914022  0.419677  0.270422  1
  Li  Li14070  1  0.919677  0.585978  0.729578  1
  Li  Li14071  1  0.085978  0.580323  0.270422  1
  Li  Li14072  1  0.270422  0.580323  0.085978  1
  Li  Li14073  1  0.080323  0.229578  0.914022  1
  Li  Li14074  1  0.729578  0.419677  0.085978  1
  Li  Li14075  1  0.919677  0.770422  0.914022  1
  Li  Li14076  1  0.270422  0.419677  0.914022  1
  Li  Li14077  1  0.919677  0.229578  0.085978  1
  Li  Li14078  1  0.729578  0.580323  0.914022  1
  Li  Li14079  1  0.080323  0.770422  0.085978  1
  Li  Li14080  1  0.085978  0.770422  0.080323  1
  Li  Li14081  1  0.085978  0.229578  0.919677  1
  Li  Li14082  1  0.729578  0.414022  0.080323  1
  Li  Li14083  1  0.914022  0.770422  0.919677  1
  Li  Li14084  1  0.270422  0.585978  0.080323  1
  Li  Li14085  1  0.914022  0.229578  0.080323  1
  Li  Li14086  1  0.729578  0.585978  0.919677  1
  Li  Li14087  1  0.270422  0.414022  0.919677  1
  Li  Li14088  1  0.080323  0.085978  0.770422  1
  Li  Li14089  1  0.085978  0.919677  0.229578  1
  Li  Li14090  1  0.919677  0.914022  0.770422  1
  Li  Li14091  1  0.914022  0.080323  0.229578  1
  Li  Li14092  1  0.080323  0.914022  0.229578  1
  Li  Li14093  1  0.914022  0.919677  0.770422  1
  Li  Li14094  1  0.919677  0.085978  0.229578  1
  Li  Li14095  1  0.085978  0.080323  0.770422  1
  Li  Li14096  1  0.270422  0.080323  0.585978  1
  Li  Li14097  1  0.080323  0.729578  0.414022  1
  Li  Li14098  1  0.729578  0.919677  0.585978  1
  Li  Li14099  1  0.919677  0.270422  0.414022  1
  Li  Li14100  1  0.270422  0.919677  0.414022  1
  Li  Li14101  1  0.919677  0.729578  0.585978  1
  Li  Li14102  1  0.729578  0.080323  0.414022  1
  Li  Li14103  1  0.080323  0.270422  0.585978  1
  Li  Li14104  1  0.085978  0.270422  0.580323  1
  Li  Li14105  1  0.085978  0.729578  0.419677  1
  Li  Li14106  1  0.729578  0.914022  0.580323  1
  Li  Li14107  1  0.914022  0.270422  0.419677  1
  Li  Li14108  1  0.270422  0.085978  0.580323  1
  Li  Li14109  1  0.914022  0.729578  0.580323  1
  Li  Li14110  1  0.729578  0.085978  0.419677  1
  Li  Li14111  1  0.270422  0.914022  0.419677  1
  Li  Li14112  1  0.518815  0.780691  0.716574  1
  Li  Li14113  1  0.780691  0.481185  0.283426  1
  Li  Li14114  1  0.481185  0.219309  0.716574  1
  Li  Li14115  1  0.219309  0.518815  0.283426  1
  Li  Li14116  1  0.518815  0.219309  0.283426  1
  Li  Li14117  1  0.219309  0.481185  0.716574  1
  Li  Li14118  1  0.481185  0.780691  0.283426  1
  Li  Li14119  1  0.780691  0.518815  0.716574  1
  Li  Li14120  1  0.716574  0.518815  0.780691  1
  Li  Li14121  1  0.518815  0.283426  0.219309  1
  Li  Li14122  1  0.283426  0.481185  0.780691  1
  Li  Li14123  1  0.481185  0.716574  0.219309  1
  Li  Li14124  1  0.716574  0.481185  0.219309  1
  Li  Li14125  1  0.481185  0.283426  0.780691  1
  Li  Li14126  1  0.283426  0.518815  0.219309  1
  Li  Li14127  1  0.518815  0.716574  0.780691  1
  Li  Li14128  1  0.780691  0.716574  0.518815  1
  Li  Li14129  1  0.780691  0.283426  0.481185  1
  Li  Li14130  1  0.283426  0.219309  0.518815  1
  Li  Li14131  1  0.219309  0.716574  0.481185  1
  Li  Li14132  1  0.716574  0.780691  0.518815  1
  Li  Li14133  1  0.219309  0.283426  0.518815  1
  Li  Li14134  1  0.283426  0.780691  0.481185  1
  Li  Li14135  1  0.716574  0.219309  0.481185  1
  Li  Li14136  1  0.518815  0.280691  0.216574  1
  Li  Li14137  1  0.780691  0.981185  0.783426  1
  Li  Li14138  1  0.481185  0.719309  0.216574  1
  Li  Li14139  1  0.219309  0.018815  0.783426  1
  Li  Li14140  1  0.518815  0.719309  0.783426  1
  Li  Li14141  1  0.219309  0.981185  0.216574  1
  Li  Li14142  1  0.481185  0.280691  0.783426  1
  Li  Li14143  1  0.780691  0.018815  0.216574  1
  Li  Li14144  1  0.716574  0.018815  0.280691  1
  Li  Li14145  1  0.518815  0.783426  0.719309  1
  Li  Li14146  1  0.283426  0.981185  0.280691  1
  Li  Li14147  1  0.481185  0.216574  0.719309  1
  Li  Li14148  1  0.716574  0.981185  0.719309  1
  Li  Li14149  1  0.481185  0.783426  0.280691  1
  Li  Li14150  1  0.283426  0.018815  0.719309  1
  Li  Li14151  1  0.518815  0.216574  0.280691  1
  Li  Li14152  1  0.780691  0.216574  0.018815  1
  Li  Li14153  1  0.780691  0.783426  0.981185  1
  Li  Li14154  1  0.283426  0.719309  0.018815  1
  Li  Li14155  1  0.219309  0.216574  0.981185  1
  Li  Li14156  1  0.716574  0.280691  0.018815  1
  Li  Li14157  1  0.219309  0.783426  0.018815  1
  Li  Li14158  1  0.283426  0.280691  0.981185  1
  Li  Li14159  1  0.716574  0.719309  0.981185  1
  Li  Li14160  1  0.018815  0.780691  0.216574  1
  Li  Li14161  1  0.280691  0.481185  0.783426  1
  Li  Li14162  1  0.981185  0.219309  0.216574  1
  Li  Li14163  1  0.719309  0.518815  0.783426  1
  Li  Li14164  1  0.018815  0.219309  0.783426  1
  Li  Li14165  1  0.719309  0.481185  0.216574  1
  Li  Li14166  1  0.981185  0.780691  0.783426  1
  Li  Li14167  1  0.280691  0.518815  0.216574  1
  Li  Li14168  1  0.216574  0.518815  0.280691  1
  Li  Li14169  1  0.018815  0.283426  0.719309  1
  Li  Li14170  1  0.783426  0.481185  0.280691  1
  Li  Li14171  1  0.981185  0.716574  0.719309  1
  Li  Li14172  1  0.216574  0.481185  0.719309  1
  Li  Li14173  1  0.981185  0.283426  0.280691  1
  Li  Li14174  1  0.783426  0.518815  0.719309  1
  Li  Li14175  1  0.018815  0.716574  0.280691  1
  Li  Li14176  1  0.280691  0.716574  0.018815  1
  Li  Li14177  1  0.280691  0.283426  0.981185  1
  Li  Li14178  1  0.783426  0.219309  0.018815  1
  Li  Li14179  1  0.719309  0.716574  0.981185  1
  Li  Li14180  1  0.216574  0.780691  0.018815  1
  Li  Li14181  1  0.719309  0.283426  0.018815  1
  Li  Li14182  1  0.783426  0.780691  0.981185  1
  Li  Li14183  1  0.216574  0.219309  0.981185  1
  Li  Li14184  1  0.018815  0.280691  0.716574  1
  Li  Li14185  1  0.280691  0.981185  0.283426  1
  Li  Li14186  1  0.981185  0.719309  0.716574  1
  Li  Li14187  1  0.719309  0.018815  0.283426  1
  Li  Li14188  1  0.018815  0.719309  0.283426  1
  Li  Li14189  1  0.719309  0.981185  0.716574  1
  Li  Li14190  1  0.981185  0.280691  0.283426  1
  Li  Li14191  1  0.280691  0.018815  0.716574  1
  Li  Li14192  1  0.216574  0.018815  0.780691  1
  Li  Li14193  1  0.018815  0.783426  0.219309  1
  Li  Li14194  1  0.783426  0.981185  0.780691  1
  Li  Li14195  1  0.981185  0.216574  0.219309  1
  Li  Li14196  1  0.216574  0.981185  0.219309  1
  Li  Li14197  1  0.981185  0.783426  0.780691  1
  Li  Li14198  1  0.783426  0.018815  0.219309  1
  Li  Li14199  1  0.018815  0.216574  0.780691  1
  Li  Li14200  1  0.280691  0.216574  0.518815  1
  Li  Li14201  1  0.280691  0.783426  0.481185  1
  Li  Li14202  1  0.783426  0.719309  0.518815  1
  Li  Li14203  1  0.719309  0.216574  0.481185  1
  Li  Li14204  1  0.216574  0.280691  0.518815  1
  Li  Li14205  1  0.719309  0.783426  0.518815  1
  Li  Li14206  1  0.783426  0.280691  0.481185  1
  Li  Li14207  1  0.216574  0.719309  0.481185  1
  Li  Li14208  1  0.530483  0.815889  0.721579  1
  Li  Li14209  1  0.815889  0.469517  0.278421  1
  Li  Li14210  1  0.469517  0.184111  0.721579  1
  Li  Li14211  1  0.184111  0.530483  0.278421  1
  Li  Li14212  1  0.530483  0.184111  0.278421  1
  Li  Li14213  1  0.184111  0.469517  0.721579  1
  Li  Li14214  1  0.469517  0.815889  0.278421  1
  Li  Li14215  1  0.815889  0.530483  0.721579  1
  Li  Li14216  1  0.721579  0.530483  0.815889  1
  Li  Li14217  1  0.530483  0.278421  0.184111  1
  Li  Li14218  1  0.278421  0.469517  0.815889  1
  Li  Li14219  1  0.469517  0.721579  0.184111  1
  Li  Li14220  1  0.721579  0.469517  0.184111  1
  Li  Li14221  1  0.469517  0.278421  0.815889  1
  Li  Li14222  1  0.278421  0.530483  0.184111  1
  Li  Li14223  1  0.530483  0.721579  0.815889  1
  Li  Li14224  1  0.815889  0.721579  0.530483  1
  Li  Li14225  1  0.815889  0.278421  0.469517  1
  Li  Li14226  1  0.278421  0.184111  0.530483  1
  Li  Li14227  1  0.184111  0.721579  0.469517  1
  Li  Li14228  1  0.721579  0.815889  0.530483  1
  Li  Li14229  1  0.184111  0.278421  0.530483  1
  Li  Li14230  1  0.278421  0.815889  0.469517  1
  Li  Li14231  1  0.721579  0.184111  0.469517  1
  Li  Li14232  1  0.530483  0.315889  0.221579  1
  Li  Li14233  1  0.815889  0.969517  0.778421  1
  Li  Li14234  1  0.469517  0.684111  0.221579  1
  Li  Li14235  1  0.184111  0.030483  0.778421  1
  Li  Li14236  1  0.530483  0.684111  0.778421  1
  Li  Li14237  1  0.184111  0.969517  0.221579  1
  Li  Li14238  1  0.469517  0.315889  0.778421  1
  Li  Li14239  1  0.815889  0.030483  0.221579  1
  Li  Li14240  1  0.721579  0.030483  0.315889  1
  Li  Li14241  1  0.530483  0.778421  0.684111  1
  Li  Li14242  1  0.278421  0.969517  0.315889  1
  Li  Li14243  1  0.469517  0.221579  0.684111  1
  Li  Li14244  1  0.721579  0.969517  0.684111  1
  Li  Li14245  1  0.469517  0.778421  0.315889  1
  Li  Li14246  1  0.278421  0.030483  0.684111  1
  Li  Li14247  1  0.530483  0.221579  0.315889  1
  Li  Li14248  1  0.815889  0.221579  0.030483  1
  Li  Li14249  1  0.815889  0.778421  0.969517  1
  Li  Li14250  1  0.278421  0.684111  0.030483  1
  Li  Li14251  1  0.184111  0.221579  0.969517  1
  Li  Li14252  1  0.721579  0.315889  0.030483  1
  Li  Li14253  1  0.184111  0.778421  0.030483  1
  Li  Li14254  1  0.278421  0.315889  0.969517  1
  Li  Li14255  1  0.721579  0.684111  0.969517  1
  Li  Li14256  1  0.030483  0.815889  0.221579  1
  Li  Li14257  1  0.315889  0.469517  0.778421  1
  Li  Li14258  1  0.969517  0.184111  0.221579  1
  Li  Li14259  1  0.684111  0.530483  0.778421  1
  Li  Li14260  1  0.030483  0.184111  0.778421  1
  Li  Li14261  1  0.684111  0.469517  0.221579  1
  Li  Li14262  1  0.969517  0.815889  0.778421  1
  Li  Li14263  1  0.315889  0.530483  0.221579  1
  Li  Li14264  1  0.221579  0.530483  0.315889  1
  Li  Li14265  1  0.030483  0.278421  0.684111  1
  Li  Li14266  1  0.778421  0.469517  0.315889  1
  Li  Li14267  1  0.969517  0.721579  0.684111  1
  Li  Li14268  1  0.221579  0.469517  0.684111  1
  Li  Li14269  1  0.969517  0.278421  0.315889  1
  Li  Li14270  1  0.778421  0.530483  0.684111  1
  Li  Li14271  1  0.030483  0.721579  0.315889  1
  Li  Li14272  1  0.315889  0.721579  0.030483  1
  Li  Li14273  1  0.315889  0.278421  0.969517  1
  Li  Li14274  1  0.778421  0.184111  0.030483  1
  Li  Li14275  1  0.684111  0.721579  0.969517  1
  Li  Li14276  1  0.221579  0.815889  0.030483  1
  Li  Li14277  1  0.684111  0.278421  0.030483  1
  Li  Li14278  1  0.778421  0.815889  0.969517  1
  Li  Li14279  1  0.221579  0.184111  0.969517  1
  Li  Li14280  1  0.030483  0.315889  0.721579  1
  Li  Li14281  1  0.315889  0.969517  0.278421  1
  Li  Li14282  1  0.969517  0.684111  0.721579  1
  Li  Li14283  1  0.684111  0.030483  0.278421  1
  Li  Li14284  1  0.030483  0.684111  0.278421  1
  Li  Li14285  1  0.684111  0.969517  0.721579  1
  Li  Li14286  1  0.969517  0.315889  0.278421  1
  Li  Li14287  1  0.315889  0.030483  0.721579  1
  Li  Li14288  1  0.221579  0.030483  0.815889  1
  Li  Li14289  1  0.030483  0.778421  0.184111  1
  Li  Li14290  1  0.778421  0.969517  0.815889  1
  Li  Li14291  1  0.969517  0.221579  0.184111  1
  Li  Li14292  1  0.221579  0.969517  0.184111  1
  Li  Li14293  1  0.969517  0.778421  0.815889  1
  Li  Li14294  1  0.778421  0.030483  0.184111  1
  Li  Li14295  1  0.030483  0.221579  0.815889  1
  Li  Li14296  1  0.315889  0.221579  0.530483  1
  Li  Li14297  1  0.315889  0.778421  0.469517  1
  Li  Li14298  1  0.778421  0.684111  0.530483  1
  Li  Li14299  1  0.684111  0.221579  0.469517  1
  Li  Li14300  1  0.221579  0.315889  0.530483  1
  Li  Li14301  1  0.684111  0.778421  0.530483  1
  Li  Li14302  1  0.778421  0.315889  0.469517  1
  Li  Li14303  1  0.221579  0.684111  0.469517  1
  Li  Li14304  1  0.985778  0.827062  0.778767  1
  Li  Li14305  1  0.827062  0.014222  0.221233  1
  Li  Li14306  1  0.014222  0.172938  0.778767  1
  Li  Li14307  1  0.172938  0.985778  0.221233  1
  Li  Li14308  1  0.985778  0.172938  0.221233  1
  Li  Li14309  1  0.172938  0.014222  0.778767  1
  Li  Li14310  1  0.014222  0.827062  0.221233  1
  Li  Li14311  1  0.827062  0.985778  0.778767  1
  Li  Li14312  1  0.778767  0.985778  0.827062  1
  Li  Li14313  1  0.985778  0.221233  0.172938  1
  Li  Li14314  1  0.221233  0.014222  0.827062  1
  Li  Li14315  1  0.014222  0.778767  0.172938  1
  Li  Li14316  1  0.778767  0.014222  0.172938  1
  Li  Li14317  1  0.014222  0.221233  0.827062  1
  Li  Li14318  1  0.221233  0.985778  0.172938  1
  Li  Li14319  1  0.985778  0.778767  0.827062  1
  Li  Li14320  1  0.827062  0.778767  0.985778  1
  Li  Li14321  1  0.827062  0.221233  0.014222  1
  Li  Li14322  1  0.221233  0.172938  0.985778  1
  Li  Li14323  1  0.172938  0.778767  0.014222  1
  Li  Li14324  1  0.778767  0.827062  0.985778  1
  Li  Li14325  1  0.172938  0.221233  0.985778  1
  Li  Li14326  1  0.221233  0.827062  0.014222  1
  Li  Li14327  1  0.778767  0.172938  0.014222  1
  Li  Li14328  1  0.985778  0.327062  0.278767  1
  Li  Li14329  1  0.827062  0.514222  0.721233  1
  Li  Li14330  1  0.014222  0.672938  0.278767  1
  Li  Li14331  1  0.172938  0.485778  0.721233  1
  Li  Li14332  1  0.985778  0.672938  0.721233  1
  Li  Li14333  1  0.172938  0.514222  0.278767  1
  Li  Li14334  1  0.014222  0.327062  0.721233  1
  Li  Li14335  1  0.827062  0.485778  0.278767  1
  Li  Li14336  1  0.778767  0.485778  0.327062  1
  Li  Li14337  1  0.985778  0.721233  0.672938  1
  Li  Li14338  1  0.221233  0.514222  0.327062  1
  Li  Li14339  1  0.014222  0.278767  0.672938  1
  Li  Li14340  1  0.778767  0.514222  0.672938  1
  Li  Li14341  1  0.014222  0.721233  0.327062  1
  Li  Li14342  1  0.221233  0.485778  0.672938  1
  Li  Li14343  1  0.985778  0.278767  0.327062  1
  Li  Li14344  1  0.827062  0.278767  0.485778  1
  Li  Li14345  1  0.827062  0.721233  0.514222  1
  Li  Li14346  1  0.221233  0.672938  0.485778  1
  Li  Li14347  1  0.172938  0.278767  0.514222  1
  Li  Li14348  1  0.778767  0.327062  0.485778  1
  Li  Li14349  1  0.172938  0.721233  0.485778  1
  Li  Li14350  1  0.221233  0.327062  0.514222  1
  Li  Li14351  1  0.778767  0.672938  0.514222  1
  Li  Li14352  1  0.485778  0.827062  0.278767  1
  Li  Li14353  1  0.327062  0.014222  0.721233  1
  Li  Li14354  1  0.514222  0.172938  0.278767  1
  Li  Li14355  1  0.672938  0.985778  0.721233  1
  Li  Li14356  1  0.485778  0.172938  0.721233  1
  Li  Li14357  1  0.672938  0.014222  0.278767  1
  Li  Li14358  1  0.514222  0.827062  0.721233  1
  Li  Li14359  1  0.327062  0.985778  0.278767  1
  Li  Li14360  1  0.278767  0.985778  0.327062  1
  Li  Li14361  1  0.485778  0.221233  0.672938  1
  Li  Li14362  1  0.721233  0.014222  0.327062  1
  Li  Li14363  1  0.514222  0.778767  0.672938  1
  Li  Li14364  1  0.278767  0.014222  0.672938  1
  Li  Li14365  1  0.514222  0.221233  0.327062  1
  Li  Li14366  1  0.721233  0.985778  0.672938  1
  Li  Li14367  1  0.485778  0.778767  0.327062  1
  Li  Li14368  1  0.327062  0.778767  0.485778  1
  Li  Li14369  1  0.327062  0.221233  0.514222  1
  Li  Li14370  1  0.721233  0.172938  0.485778  1
  Li  Li14371  1  0.672938  0.778767  0.514222  1
  Li  Li14372  1  0.278767  0.827062  0.485778  1
  Li  Li14373  1  0.672938  0.221233  0.485778  1
  Li  Li14374  1  0.721233  0.827062  0.514222  1
  Li  Li14375  1  0.278767  0.172938  0.514222  1
  Li  Li14376  1  0.485778  0.327062  0.778767  1
  Li  Li14377  1  0.327062  0.514222  0.221233  1
  Li  Li14378  1  0.514222  0.672938  0.778767  1
  Li  Li14379  1  0.672938  0.485778  0.221233  1
  Li  Li14380  1  0.485778  0.672938  0.221233  1
  Li  Li14381  1  0.672938  0.514222  0.778767  1
  Li  Li14382  1  0.514222  0.327062  0.221233  1
  Li  Li14383  1  0.327062  0.485778  0.778767  1
  Li  Li14384  1  0.278767  0.485778  0.827062  1
  Li  Li14385  1  0.485778  0.721233  0.172938  1
  Li  Li14386  1  0.721233  0.514222  0.827062  1
  Li  Li14387  1  0.514222  0.278767  0.172938  1
  Li  Li14388  1  0.278767  0.514222  0.172938  1
  Li  Li14389  1  0.514222  0.721233  0.827062  1
  Li  Li14390  1  0.721233  0.485778  0.172938  1
  Li  Li14391  1  0.485778  0.278767  0.827062  1
  Li  Li14392  1  0.327062  0.278767  0.985778  1
  Li  Li14393  1  0.327062  0.721233  0.014222  1
  Li  Li14394  1  0.721233  0.672938  0.985778  1
  Li  Li14395  1  0.672938  0.278767  0.014222  1
  Li  Li14396  1  0.278767  0.327062  0.985778  1
  Li  Li14397  1  0.672938  0.721233  0.985778  1
  Li  Li14398  1  0.721233  0.327062  0.014222  1
  Li  Li14399  1  0.278767  0.672938  0.014222  1
  Li  Li14400  1  0.697797  0.785883  0.522961  1
  Li  Li14401  1  0.785883  0.302203  0.477039  1
  Li  Li14402  1  0.302203  0.214117  0.522961  1
  Li  Li14403  1  0.214117  0.697797  0.477039  1
  Li  Li14404  1  0.697797  0.214117  0.477039  1
  Li  Li14405  1  0.214117  0.302203  0.522961  1
  Li  Li14406  1  0.302203  0.785883  0.477039  1
  Li  Li14407  1  0.785883  0.697797  0.522961  1
  Li  Li14408  1  0.522961  0.697797  0.785883  1
  Li  Li14409  1  0.697797  0.477039  0.214117  1
  Li  Li14410  1  0.477039  0.302203  0.785883  1
  Li  Li14411  1  0.302203  0.522961  0.214117  1
  Li  Li14412  1  0.522961  0.302203  0.214117  1
  Li  Li14413  1  0.302203  0.477039  0.785883  1
  Li  Li14414  1  0.477039  0.697797  0.214117  1
  Li  Li14415  1  0.697797  0.522961  0.785883  1
  Li  Li14416  1  0.785883  0.522961  0.697797  1
  Li  Li14417  1  0.785883  0.477039  0.302203  1
  Li  Li14418  1  0.477039  0.214117  0.697797  1
  Li  Li14419  1  0.214117  0.522961  0.302203  1
  Li  Li14420  1  0.522961  0.785883  0.697797  1
  Li  Li14421  1  0.214117  0.477039  0.697797  1
  Li  Li14422  1  0.477039  0.785883  0.302203  1
  Li  Li14423  1  0.522961  0.214117  0.302203  1
  Li  Li14424  1  0.697797  0.285883  0.022961  1
  Li  Li14425  1  0.785883  0.802203  0.977039  1
  Li  Li14426  1  0.302203  0.714117  0.022961  1
  Li  Li14427  1  0.214117  0.197797  0.977039  1
  Li  Li14428  1  0.697797  0.714117  0.977039  1
  Li  Li14429  1  0.214117  0.802203  0.022961  1
  Li  Li14430  1  0.302203  0.285883  0.977039  1
  Li  Li14431  1  0.785883  0.197797  0.022961  1
  Li  Li14432  1  0.522961  0.197797  0.285883  1
  Li  Li14433  1  0.697797  0.977039  0.714117  1
  Li  Li14434  1  0.477039  0.802203  0.285883  1
  Li  Li14435  1  0.302203  0.022961  0.714117  1
  Li  Li14436  1  0.522961  0.802203  0.714117  1
  Li  Li14437  1  0.302203  0.977039  0.285883  1
  Li  Li14438  1  0.477039  0.197797  0.714117  1
  Li  Li14439  1  0.697797  0.022961  0.285883  1
  Li  Li14440  1  0.785883  0.022961  0.197797  1
  Li  Li14441  1  0.785883  0.977039  0.802203  1
  Li  Li14442  1  0.477039  0.714117  0.197797  1
  Li  Li14443  1  0.214117  0.022961  0.802203  1
  Li  Li14444  1  0.522961  0.285883  0.197797  1
  Li  Li14445  1  0.214117  0.977039  0.197797  1
  Li  Li14446  1  0.477039  0.285883  0.802203  1
  Li  Li14447  1  0.522961  0.714117  0.802203  1
  Li  Li14448  1  0.197797  0.785883  0.022961  1
  Li  Li14449  1  0.285883  0.302203  0.977039  1
  Li  Li14450  1  0.802203  0.214117  0.022961  1
  Li  Li14451  1  0.714117  0.697797  0.977039  1
  Li  Li14452  1  0.197797  0.214117  0.977039  1
  Li  Li14453  1  0.714117  0.302203  0.022961  1
  Li  Li14454  1  0.802203  0.785883  0.977039  1
  Li  Li14455  1  0.285883  0.697797  0.022961  1
  Li  Li14456  1  0.022961  0.697797  0.285883  1
  Li  Li14457  1  0.197797  0.477039  0.714117  1
  Li  Li14458  1  0.977039  0.302203  0.285883  1
  Li  Li14459  1  0.802203  0.522961  0.714117  1
  Li  Li14460  1  0.022961  0.302203  0.714117  1
  Li  Li14461  1  0.802203  0.477039  0.285883  1
  Li  Li14462  1  0.977039  0.697797  0.714117  1
  Li  Li14463  1  0.197797  0.522961  0.285883  1
  Li  Li14464  1  0.285883  0.522961  0.197797  1
  Li  Li14465  1  0.285883  0.477039  0.802203  1
  Li  Li14466  1  0.977039  0.214117  0.197797  1
  Li  Li14467  1  0.714117  0.522961  0.802203  1
  Li  Li14468  1  0.022961  0.785883  0.197797  1
  Li  Li14469  1  0.714117  0.477039  0.197797  1
  Li  Li14470  1  0.977039  0.785883  0.802203  1
  Li  Li14471  1  0.022961  0.214117  0.802203  1
  Li  Li14472  1  0.197797  0.285883  0.522961  1
  Li  Li14473  1  0.285883  0.802203  0.477039  1
  Li  Li14474  1  0.802203  0.714117  0.522961  1
  Li  Li14475  1  0.714117  0.197797  0.477039  1
  Li  Li14476  1  0.197797  0.714117  0.477039  1
  Li  Li14477  1  0.714117  0.802203  0.522961  1
  Li  Li14478  1  0.802203  0.285883  0.477039  1
  Li  Li14479  1  0.285883  0.197797  0.522961  1
  Li  Li14480  1  0.022961  0.197797  0.785883  1
  Li  Li14481  1  0.197797  0.977039  0.214117  1
  Li  Li14482  1  0.977039  0.802203  0.785883  1
  Li  Li14483  1  0.802203  0.022961  0.214117  1
  Li  Li14484  1  0.022961  0.802203  0.214117  1
  Li  Li14485  1  0.802203  0.977039  0.785883  1
  Li  Li14486  1  0.977039  0.197797  0.214117  1
  Li  Li14487  1  0.197797  0.022961  0.785883  1
  Li  Li14488  1  0.285883  0.022961  0.697797  1
  Li  Li14489  1  0.285883  0.977039  0.302203  1
  Li  Li14490  1  0.977039  0.714117  0.697797  1
  Li  Li14491  1  0.714117  0.022961  0.302203  1
  Li  Li14492  1  0.022961  0.285883  0.697797  1
  Li  Li14493  1  0.714117  0.977039  0.697797  1
  Li  Li14494  1  0.977039  0.285883  0.302203  1
  Li  Li14495  1  0.022961  0.714117  0.302203  1
  Li  Li14496  1  0.983164  0.757880  0.749611  1
  Li  Li14497  1  0.757880  0.016836  0.250389  1
  Li  Li14498  1  0.016836  0.242120  0.749611  1
  Li  Li14499  1  0.242120  0.983164  0.250389  1
  Li  Li14500  1  0.983164  0.242120  0.250389  1
  Li  Li14501  1  0.242120  0.016836  0.749611  1
  Li  Li14502  1  0.016836  0.757880  0.250389  1
  Li  Li14503  1  0.757880  0.983164  0.749611  1
  Li  Li14504  1  0.749611  0.983164  0.757880  1
  Li  Li14505  1  0.983164  0.250389  0.242120  1
  Li  Li14506  1  0.250389  0.016836  0.757880  1
  Li  Li14507  1  0.016836  0.749611  0.242120  1
  Li  Li14508  1  0.749611  0.016836  0.242120  1
  Li  Li14509  1  0.016836  0.250389  0.757880  1
  Li  Li14510  1  0.250389  0.983164  0.242120  1
  Li  Li14511  1  0.983164  0.749611  0.757880  1
  Li  Li14512  1  0.757880  0.749611  0.983164  1
  Li  Li14513  1  0.757880  0.250389  0.016836  1
  Li  Li14514  1  0.250389  0.242120  0.983164  1
  Li  Li14515  1  0.242120  0.749611  0.016836  1
  Li  Li14516  1  0.749611  0.757880  0.983164  1
  Li  Li14517  1  0.242120  0.250389  0.983164  1
  Li  Li14518  1  0.250389  0.757880  0.016836  1
  Li  Li14519  1  0.749611  0.242120  0.016836  1
  Li  Li14520  1  0.983164  0.257880  0.249611  1
  Li  Li14521  1  0.757880  0.516836  0.750389  1
  Li  Li14522  1  0.016836  0.742120  0.249611  1
  Li  Li14523  1  0.242120  0.483164  0.750389  1
  Li  Li14524  1  0.983164  0.742120  0.750389  1
  Li  Li14525  1  0.242120  0.516836  0.249611  1
  Li  Li14526  1  0.016836  0.257880  0.750389  1
  Li  Li14527  1  0.757880  0.483164  0.249611  1
  Li  Li14528  1  0.749611  0.483164  0.257880  1
  Li  Li14529  1  0.983164  0.750389  0.742120  1
  Li  Li14530  1  0.250389  0.516836  0.257880  1
  Li  Li14531  1  0.016836  0.249611  0.742120  1
  Li  Li14532  1  0.749611  0.516836  0.742120  1
  Li  Li14533  1  0.016836  0.750389  0.257880  1
  Li  Li14534  1  0.250389  0.483164  0.742120  1
  Li  Li14535  1  0.983164  0.249611  0.257880  1
  Li  Li14536  1  0.757880  0.249611  0.483164  1
  Li  Li14537  1  0.757880  0.750389  0.516836  1
  Li  Li14538  1  0.250389  0.742120  0.483164  1
  Li  Li14539  1  0.242120  0.249611  0.516836  1
  Li  Li14540  1  0.749611  0.257880  0.483164  1
  Li  Li14541  1  0.242120  0.750389  0.483164  1
  Li  Li14542  1  0.250389  0.257880  0.516836  1
  Li  Li14543  1  0.749611  0.742120  0.516836  1
  Li  Li14544  1  0.483164  0.757880  0.249611  1
  Li  Li14545  1  0.257880  0.016836  0.750389  1
  Li  Li14546  1  0.516836  0.242120  0.249611  1
  Li  Li14547  1  0.742120  0.983164  0.750389  1
  Li  Li14548  1  0.483164  0.242120  0.750389  1
  Li  Li14549  1  0.742120  0.016836  0.249611  1
  Li  Li14550  1  0.516836  0.757880  0.750389  1
  Li  Li14551  1  0.257880  0.983164  0.249611  1
  Li  Li14552  1  0.249611  0.983164  0.257880  1
  Li  Li14553  1  0.483164  0.250389  0.742120  1
  Li  Li14554  1  0.750389  0.016836  0.257880  1
  Li  Li14555  1  0.516836  0.749611  0.742120  1
  Li  Li14556  1  0.249611  0.016836  0.742120  1
  Li  Li14557  1  0.516836  0.250389  0.257880  1
  Li  Li14558  1  0.750389  0.983164  0.742120  1
  Li  Li14559  1  0.483164  0.749611  0.257880  1
  Li  Li14560  1  0.257880  0.749611  0.483164  1
  Li  Li14561  1  0.257880  0.250389  0.516836  1
  Li  Li14562  1  0.750389  0.242120  0.483164  1
  Li  Li14563  1  0.742120  0.749611  0.516836  1
  Li  Li14564  1  0.249611  0.757880  0.483164  1
  Li  Li14565  1  0.742120  0.250389  0.483164  1
  Li  Li14566  1  0.750389  0.757880  0.516836  1
  Li  Li14567  1  0.249611  0.242120  0.516836  1
  Li  Li14568  1  0.483164  0.257880  0.749611  1
  Li  Li14569  1  0.257880  0.516836  0.250389  1
  Li  Li14570  1  0.516836  0.742120  0.749611  1
  Li  Li14571  1  0.742120  0.483164  0.250389  1
  Li  Li14572  1  0.483164  0.742120  0.250389  1
  Li  Li14573  1  0.742120  0.516836  0.749611  1
  Li  Li14574  1  0.516836  0.257880  0.250389  1
  Li  Li14575  1  0.257880  0.483164  0.749611  1
  Li  Li14576  1  0.249611  0.483164  0.757880  1
  Li  Li14577  1  0.483164  0.750389  0.242120  1
  Li  Li14578  1  0.750389  0.516836  0.757880  1
  Li  Li14579  1  0.516836  0.249611  0.242120  1
  Li  Li14580  1  0.249611  0.516836  0.242120  1
  Li  Li14581  1  0.516836  0.750389  0.757880  1
  Li  Li14582  1  0.750389  0.483164  0.242120  1
  Li  Li14583  1  0.483164  0.249611  0.757880  1
  Li  Li14584  1  0.257880  0.249611  0.983164  1
  Li  Li14585  1  0.257880  0.750389  0.016836  1
  Li  Li14586  1  0.750389  0.742120  0.983164  1
  Li  Li14587  1  0.742120  0.249611  0.016836  1
  Li  Li14588  1  0.249611  0.257880  0.983164  1
  Li  Li14589  1  0.742120  0.750389  0.983164  1
  Li  Li14590  1  0.750389  0.257880  0.016836  1
  Li  Li14591  1  0.249611  0.742120  0.016836  1
  Li  Li14592  1  0.520765  0.744978  0.761937  1
  Li  Li14593  1  0.744978  0.479235  0.238063  1
  Li  Li14594  1  0.479235  0.255022  0.761937  1
  Li  Li14595  1  0.255022  0.520765  0.238063  1
  Li  Li14596  1  0.520765  0.255022  0.238063  1
  Li  Li14597  1  0.255022  0.479235  0.761937  1
  Li  Li14598  1  0.479235  0.744978  0.238063  1
  Li  Li14599  1  0.744978  0.520765  0.761937  1
  Li  Li14600  1  0.761937  0.520765  0.744978  1
  Li  Li14601  1  0.520765  0.238063  0.255022  1
  Li  Li14602  1  0.238063  0.479235  0.744978  1
  Li  Li14603  1  0.479235  0.761937  0.255022  1
  Li  Li14604  1  0.761937  0.479235  0.255022  1
  Li  Li14605  1  0.479235  0.238063  0.744978  1
  Li  Li14606  1  0.238063  0.520765  0.255022  1
  Li  Li14607  1  0.520765  0.761937  0.744978  1
  Li  Li14608  1  0.744978  0.761937  0.520765  1
  Li  Li14609  1  0.744978  0.238063  0.479235  1
  Li  Li14610  1  0.238063  0.255022  0.520765  1
  Li  Li14611  1  0.255022  0.761937  0.479235  1
  Li  Li14612  1  0.761937  0.744978  0.520765  1
  Li  Li14613  1  0.255022  0.238063  0.520765  1
  Li  Li14614  1  0.238063  0.744978  0.479235  1
  Li  Li14615  1  0.761937  0.255022  0.479235  1
  Li  Li14616  1  0.520765  0.244978  0.261937  1
  Li  Li14617  1  0.744978  0.979235  0.738063  1
  Li  Li14618  1  0.479235  0.755022  0.261937  1
  Li  Li14619  1  0.255022  0.020765  0.738063  1
  Li  Li14620  1  0.520765  0.755022  0.738063  1
  Li  Li14621  1  0.255022  0.979235  0.261937  1
  Li  Li14622  1  0.479235  0.244978  0.738063  1
  Li  Li14623  1  0.744978  0.020765  0.261937  1
  Li  Li14624  1  0.761937  0.020765  0.244978  1
  Li  Li14625  1  0.520765  0.738063  0.755022  1
  Li  Li14626  1  0.238063  0.979235  0.244978  1
  Li  Li14627  1  0.479235  0.261937  0.755022  1
  Li  Li14628  1  0.761937  0.979235  0.755022  1
  Li  Li14629  1  0.479235  0.738063  0.244978  1
  Li  Li14630  1  0.238063  0.020765  0.755022  1
  Li  Li14631  1  0.520765  0.261937  0.244978  1
  Li  Li14632  1  0.744978  0.261937  0.020765  1
  Li  Li14633  1  0.744978  0.738063  0.979235  1
  Li  Li14634  1  0.238063  0.755022  0.020765  1
  Li  Li14635  1  0.255022  0.261937  0.979235  1
  Li  Li14636  1  0.761937  0.244978  0.020765  1
  Li  Li14637  1  0.255022  0.738063  0.020765  1
  Li  Li14638  1  0.238063  0.244978  0.979235  1
  Li  Li14639  1  0.761937  0.755022  0.979235  1
  Li  Li14640  1  0.020765  0.744978  0.261937  1
  Li  Li14641  1  0.244978  0.479235  0.738063  1
  Li  Li14642  1  0.979235  0.255022  0.261937  1
  Li  Li14643  1  0.755022  0.520765  0.738063  1
  Li  Li14644  1  0.020765  0.255022  0.738063  1
  Li  Li14645  1  0.755022  0.479235  0.261937  1
  Li  Li14646  1  0.979235  0.744978  0.738063  1
  Li  Li14647  1  0.244978  0.520765  0.261937  1
  Li  Li14648  1  0.261937  0.520765  0.244978  1
  Li  Li14649  1  0.020765  0.238063  0.755022  1
  Li  Li14650  1  0.738063  0.479235  0.244978  1
  Li  Li14651  1  0.979235  0.761937  0.755022  1
  Li  Li14652  1  0.261937  0.479235  0.755022  1
  Li  Li14653  1  0.979235  0.238063  0.244978  1
  Li  Li14654  1  0.738063  0.520765  0.755022  1
  Li  Li14655  1  0.020765  0.761937  0.244978  1
  Li  Li14656  1  0.244978  0.761937  0.020765  1
  Li  Li14657  1  0.244978  0.238063  0.979235  1
  Li  Li14658  1  0.738063  0.255022  0.020765  1
  Li  Li14659  1  0.755022  0.761937  0.979235  1
  Li  Li14660  1  0.261937  0.744978  0.020765  1
  Li  Li14661  1  0.755022  0.238063  0.020765  1
  Li  Li14662  1  0.738063  0.744978  0.979235  1
  Li  Li14663  1  0.261937  0.255022  0.979235  1
  Li  Li14664  1  0.020765  0.244978  0.761937  1
  Li  Li14665  1  0.244978  0.979235  0.238063  1
  Li  Li14666  1  0.979235  0.755022  0.761937  1
  Li  Li14667  1  0.755022  0.020765  0.238063  1
  Li  Li14668  1  0.020765  0.755022  0.238063  1
  Li  Li14669  1  0.755022  0.979235  0.761937  1
  Li  Li14670  1  0.979235  0.244978  0.238063  1
  Li  Li14671  1  0.244978  0.020765  0.761937  1
  Li  Li14672  1  0.261937  0.020765  0.744978  1
  Li  Li14673  1  0.020765  0.738063  0.255022  1
  Li  Li14674  1  0.738063  0.979235  0.744978  1
  Li  Li14675  1  0.979235  0.261937  0.255022  1
  Li  Li14676  1  0.261937  0.979235  0.255022  1
  Li  Li14677  1  0.979235  0.738063  0.744978  1
  Li  Li14678  1  0.738063  0.020765  0.255022  1
  Li  Li14679  1  0.020765  0.261937  0.744978  1
  Li  Li14680  1  0.244978  0.261937  0.520765  1
  Li  Li14681  1  0.244978  0.738063  0.479235  1
  Li  Li14682  1  0.738063  0.755022  0.520765  1
  Li  Li14683  1  0.755022  0.261937  0.479235  1
  Li  Li14684  1  0.261937  0.244978  0.520765  1
  Li  Li14685  1  0.755022  0.738063  0.520765  1
  Li  Li14686  1  0.738063  0.244978  0.479235  1
  Li  Li14687  1  0.261937  0.755022  0.479235  1
  Li  Li14688  1  0.758178  0.750460  0.533290  1
  Li  Li14689  1  0.750460  0.241822  0.466710  1
  Li  Li14690  1  0.241822  0.249540  0.533290  1
  Li  Li14691  1  0.249540  0.758178  0.466710  1
  Li  Li14692  1  0.758178  0.249540  0.466710  1
  Li  Li14693  1  0.249540  0.241822  0.533290  1
  Li  Li14694  1  0.241822  0.750460  0.466710  1
  Li  Li14695  1  0.750460  0.758178  0.533290  1
  Li  Li14696  1  0.533290  0.758178  0.750460  1
  Li  Li14697  1  0.758178  0.466710  0.249540  1
  Li  Li14698  1  0.466710  0.241822  0.750460  1
  Li  Li14699  1  0.241822  0.533290  0.249540  1
  Li  Li14700  1  0.533290  0.241822  0.249540  1
  Li  Li14701  1  0.241822  0.466710  0.750460  1
  Li  Li14702  1  0.466710  0.758178  0.249540  1
  Li  Li14703  1  0.758178  0.533290  0.750460  1
  Li  Li14704  1  0.750460  0.533290  0.758178  1
  Li  Li14705  1  0.750460  0.466710  0.241822  1
  Li  Li14706  1  0.466710  0.249540  0.758178  1
  Li  Li14707  1  0.249540  0.533290  0.241822  1
  Li  Li14708  1  0.533290  0.750460  0.758178  1
  Li  Li14709  1  0.249540  0.466710  0.758178  1
  Li  Li14710  1  0.466710  0.750460  0.241822  1
  Li  Li14711  1  0.533290  0.249540  0.241822  1
  Li  Li14712  1  0.758178  0.250460  0.033290  1
  Li  Li14713  1  0.750460  0.741822  0.966710  1
  Li  Li14714  1  0.241822  0.749540  0.033290  1
  Li  Li14715  1  0.249540  0.258178  0.966710  1
  Li  Li14716  1  0.758178  0.749540  0.966710  1
  Li  Li14717  1  0.249540  0.741822  0.033290  1
  Li  Li14718  1  0.241822  0.250460  0.966710  1
  Li  Li14719  1  0.750460  0.258178  0.033290  1
  Li  Li14720  1  0.533290  0.258178  0.250460  1
  Li  Li14721  1  0.758178  0.966710  0.749540  1
  Li  Li14722  1  0.466710  0.741822  0.250460  1
  Li  Li14723  1  0.241822  0.033290  0.749540  1
  Li  Li14724  1  0.533290  0.741822  0.749540  1
  Li  Li14725  1  0.241822  0.966710  0.250460  1
  Li  Li14726  1  0.466710  0.258178  0.749540  1
  Li  Li14727  1  0.758178  0.033290  0.250460  1
  Li  Li14728  1  0.750460  0.033290  0.258178  1
  Li  Li14729  1  0.750460  0.966710  0.741822  1
  Li  Li14730  1  0.466710  0.749540  0.258178  1
  Li  Li14731  1  0.249540  0.033290  0.741822  1
  Li  Li14732  1  0.533290  0.250460  0.258178  1
  Li  Li14733  1  0.249540  0.966710  0.258178  1
  Li  Li14734  1  0.466710  0.250460  0.741822  1
  Li  Li14735  1  0.533290  0.749540  0.741822  1
  Li  Li14736  1  0.258178  0.750460  0.033290  1
  Li  Li14737  1  0.250460  0.241822  0.966710  1
  Li  Li14738  1  0.741822  0.249540  0.033290  1
  Li  Li14739  1  0.749540  0.758178  0.966710  1
  Li  Li14740  1  0.258178  0.249540  0.966710  1
  Li  Li14741  1  0.749540  0.241822  0.033290  1
  Li  Li14742  1  0.741822  0.750460  0.966710  1
  Li  Li14743  1  0.250460  0.758178  0.033290  1
  Li  Li14744  1  0.033290  0.758178  0.250460  1
  Li  Li14745  1  0.258178  0.466710  0.749540  1
  Li  Li14746  1  0.966710  0.241822  0.250460  1
  Li  Li14747  1  0.741822  0.533290  0.749540  1
  Li  Li14748  1  0.033290  0.241822  0.749540  1
  Li  Li14749  1  0.741822  0.466710  0.250460  1
  Li  Li14750  1  0.966710  0.758178  0.749540  1
  Li  Li14751  1  0.258178  0.533290  0.250460  1
  Li  Li14752  1  0.250460  0.533290  0.258178  1
  Li  Li14753  1  0.250460  0.466710  0.741822  1
  Li  Li14754  1  0.966710  0.249540  0.258178  1
  Li  Li14755  1  0.749540  0.533290  0.741822  1
  Li  Li14756  1  0.033290  0.750460  0.258178  1
  Li  Li14757  1  0.749540  0.466710  0.258178  1
  Li  Li14758  1  0.966710  0.750460  0.741822  1
  Li  Li14759  1  0.033290  0.249540  0.741822  1
  Li  Li14760  1  0.258178  0.250460  0.533290  1
  Li  Li14761  1  0.250460  0.741822  0.466710  1
  Li  Li14762  1  0.741822  0.749540  0.533290  1
  Li  Li14763  1  0.749540  0.258178  0.466710  1
  Li  Li14764  1  0.258178  0.749540  0.466710  1
  Li  Li14765  1  0.749540  0.741822  0.533290  1
  Li  Li14766  1  0.741822  0.250460  0.466710  1
  Li  Li14767  1  0.250460  0.258178  0.533290  1
  Li  Li14768  1  0.033290  0.258178  0.750460  1
  Li  Li14769  1  0.258178  0.966710  0.249540  1
  Li  Li14770  1  0.966710  0.741822  0.750460  1
  Li  Li14771  1  0.741822  0.033290  0.249540  1
  Li  Li14772  1  0.033290  0.741822  0.249540  1
  Li  Li14773  1  0.741822  0.966710  0.750460  1
  Li  Li14774  1  0.966710  0.258178  0.249540  1
  Li  Li14775  1  0.258178  0.033290  0.750460  1
  Li  Li14776  1  0.250460  0.033290  0.758178  1
  Li  Li14777  1  0.250460  0.966710  0.241822  1
  Li  Li14778  1  0.966710  0.749540  0.758178  1
  Li  Li14779  1  0.749540  0.033290  0.241822  1
  Li  Li14780  1  0.033290  0.250460  0.758178  1
  Li  Li14781  1  0.749540  0.966710  0.758178  1
  Li  Li14782  1  0.966710  0.250460  0.241822  1
  Li  Li14783  1  0.033290  0.749540  0.241822  1
  Li  Li14784  1  0.922940  0.910515  0.775921  1
  Li  Li14785  1  0.910515  0.077060  0.224079  1
  Li  Li14786  1  0.077060  0.089485  0.775921  1
  Li  Li14787  1  0.089485  0.922940  0.224079  1
  Li  Li14788  1  0.922940  0.089485  0.224079  1
  Li  Li14789  1  0.089485  0.077060  0.775921  1
  Li  Li14790  1  0.077060  0.910515  0.224079  1
  Li  Li14791  1  0.910515  0.922940  0.775921  1
  Li  Li14792  1  0.775921  0.922940  0.910515  1
  Li  Li14793  1  0.922940  0.224079  0.089485  1
  Li  Li14794  1  0.224079  0.077060  0.910515  1
  Li  Li14795  1  0.077060  0.775921  0.089485  1
  Li  Li14796  1  0.775921  0.077060  0.089485  1
  Li  Li14797  1  0.077060  0.224079  0.910515  1
  Li  Li14798  1  0.224079  0.922940  0.089485  1
  Li  Li14799  1  0.922940  0.775921  0.910515  1
  Li  Li14800  1  0.910515  0.775921  0.922940  1
  Li  Li14801  1  0.910515  0.224079  0.077060  1
  Li  Li14802  1  0.224079  0.089485  0.922940  1
  Li  Li14803  1  0.089485  0.775921  0.077060  1
  Li  Li14804  1  0.775921  0.910515  0.922940  1
  Li  Li14805  1  0.089485  0.224079  0.922940  1
  Li  Li14806  1  0.224079  0.910515  0.077060  1
  Li  Li14807  1  0.775921  0.089485  0.077060  1
  Li  Li14808  1  0.922940  0.410515  0.275921  1
  Li  Li14809  1  0.910515  0.577060  0.724079  1
  Li  Li14810  1  0.077060  0.589485  0.275921  1
  Li  Li14811  1  0.089485  0.422940  0.724079  1
  Li  Li14812  1  0.922940  0.589485  0.724079  1
  Li  Li14813  1  0.089485  0.577060  0.275921  1
  Li  Li14814  1  0.077060  0.410515  0.724079  1
  Li  Li14815  1  0.910515  0.422940  0.275921  1
  Li  Li14816  1  0.775921  0.422940  0.410515  1
  Li  Li14817  1  0.922940  0.724079  0.589485  1
  Li  Li14818  1  0.224079  0.577060  0.410515  1
  Li  Li14819  1  0.077060  0.275921  0.589485  1
  Li  Li14820  1  0.775921  0.577060  0.589485  1
  Li  Li14821  1  0.077060  0.724079  0.410515  1
  Li  Li14822  1  0.224079  0.422940  0.589485  1
  Li  Li14823  1  0.922940  0.275921  0.410515  1
  Li  Li14824  1  0.910515  0.275921  0.422940  1
  Li  Li14825  1  0.910515  0.724079  0.577060  1
  Li  Li14826  1  0.224079  0.589485  0.422940  1
  Li  Li14827  1  0.089485  0.275921  0.577060  1
  Li  Li14828  1  0.775921  0.410515  0.422940  1
  Li  Li14829  1  0.089485  0.724079  0.422940  1
  Li  Li14830  1  0.224079  0.410515  0.577060  1
  Li  Li14831  1  0.775921  0.589485  0.577060  1
  Li  Li14832  1  0.422940  0.910515  0.275921  1
  Li  Li14833  1  0.410515  0.077060  0.724079  1
  Li  Li14834  1  0.577060  0.089485  0.275921  1
  Li  Li14835  1  0.589485  0.922940  0.724079  1
  Li  Li14836  1  0.422940  0.089485  0.724079  1
  Li  Li14837  1  0.589485  0.077060  0.275921  1
  Li  Li14838  1  0.577060  0.910515  0.724079  1
  Li  Li14839  1  0.410515  0.922940  0.275921  1
  Li  Li14840  1  0.275921  0.922940  0.410515  1
  Li  Li14841  1  0.422940  0.224079  0.589485  1
  Li  Li14842  1  0.724079  0.077060  0.410515  1
  Li  Li14843  1  0.577060  0.775921  0.589485  1
  Li  Li14844  1  0.275921  0.077060  0.589485  1
  Li  Li14845  1  0.577060  0.224079  0.410515  1
  Li  Li14846  1  0.724079  0.922940  0.589485  1
  Li  Li14847  1  0.422940  0.775921  0.410515  1
  Li  Li14848  1  0.410515  0.775921  0.422940  1
  Li  Li14849  1  0.410515  0.224079  0.577060  1
  Li  Li14850  1  0.724079  0.089485  0.422940  1
  Li  Li14851  1  0.589485  0.775921  0.577060  1
  Li  Li14852  1  0.275921  0.910515  0.422940  1
  Li  Li14853  1  0.589485  0.224079  0.422940  1
  Li  Li14854  1  0.724079  0.910515  0.577060  1
  Li  Li14855  1  0.275921  0.089485  0.577060  1
  Li  Li14856  1  0.422940  0.410515  0.775921  1
  Li  Li14857  1  0.410515  0.577060  0.224079  1
  Li  Li14858  1  0.577060  0.589485  0.775921  1
  Li  Li14859  1  0.589485  0.422940  0.224079  1
  Li  Li14860  1  0.422940  0.589485  0.224079  1
  Li  Li14861  1  0.589485  0.577060  0.775921  1
  Li  Li14862  1  0.577060  0.410515  0.224079  1
  Li  Li14863  1  0.410515  0.422940  0.775921  1
  Li  Li14864  1  0.275921  0.422940  0.910515  1
  Li  Li14865  1  0.422940  0.724079  0.089485  1
  Li  Li14866  1  0.724079  0.577060  0.910515  1
  Li  Li14867  1  0.577060  0.275921  0.089485  1
  Li  Li14868  1  0.275921  0.577060  0.089485  1
  Li  Li14869  1  0.577060  0.724079  0.910515  1
  Li  Li14870  1  0.724079  0.422940  0.089485  1
  Li  Li14871  1  0.422940  0.275921  0.910515  1
  Li  Li14872  1  0.410515  0.275921  0.922940  1
  Li  Li14873  1  0.410515  0.724079  0.077060  1
  Li  Li14874  1  0.724079  0.589485  0.922940  1
  Li  Li14875  1  0.589485  0.275921  0.077060  1
  Li  Li14876  1  0.275921  0.410515  0.922940  1
  Li  Li14877  1  0.589485  0.724079  0.922940  1
  Li  Li14878  1  0.724079  0.410515  0.077060  1
  Li  Li14879  1  0.275921  0.589485  0.077060  1
  Li  Li14880  1  0.701584  0.974155  0.695337  1
  Li  Li14881  1  0.974155  0.298416  0.304663  1
  Li  Li14882  1  0.298416  0.025845  0.695337  1
  Li  Li14883  1  0.025845  0.701584  0.304663  1
  Li  Li14884  1  0.701584  0.025845  0.304663  1
  Li  Li14885  1  0.025845  0.298416  0.695337  1
  Li  Li14886  1  0.298416  0.974155  0.304663  1
  Li  Li14887  1  0.974155  0.701584  0.695337  1
  Li  Li14888  1  0.695337  0.701584  0.974155  1
  Li  Li14889  1  0.701584  0.304663  0.025845  1
  Li  Li14890  1  0.304663  0.298416  0.974155  1
  Li  Li14891  1  0.298416  0.695337  0.025845  1
  Li  Li14892  1  0.695337  0.298416  0.025845  1
  Li  Li14893  1  0.298416  0.304663  0.974155  1
  Li  Li14894  1  0.304663  0.701584  0.025845  1
  Li  Li14895  1  0.701584  0.695337  0.974155  1
  Li  Li14896  1  0.974155  0.695337  0.701584  1
  Li  Li14897  1  0.974155  0.304663  0.298416  1
  Li  Li14898  1  0.304663  0.025845  0.701584  1
  Li  Li14899  1  0.025845  0.695337  0.298416  1
  Li  Li14900  1  0.695337  0.974155  0.701584  1
  Li  Li14901  1  0.025845  0.304663  0.701584  1
  Li  Li14902  1  0.304663  0.974155  0.298416  1
  Li  Li14903  1  0.695337  0.025845  0.298416  1
  Li  Li14904  1  0.701584  0.474155  0.195337  1
  Li  Li14905  1  0.974155  0.798416  0.804663  1
  Li  Li14906  1  0.298416  0.525845  0.195337  1
  Li  Li14907  1  0.025845  0.201584  0.804663  1
  Li  Li14908  1  0.701584  0.525845  0.804663  1
  Li  Li14909  1  0.025845  0.798416  0.195337  1
  Li  Li14910  1  0.298416  0.474155  0.804663  1
  Li  Li14911  1  0.974155  0.201584  0.195337  1
  Li  Li14912  1  0.695337  0.201584  0.474155  1
  Li  Li14913  1  0.701584  0.804663  0.525845  1
  Li  Li14914  1  0.304663  0.798416  0.474155  1
  Li  Li14915  1  0.298416  0.195337  0.525845  1
  Li  Li14916  1  0.695337  0.798416  0.525845  1
  Li  Li14917  1  0.298416  0.804663  0.474155  1
  Li  Li14918  1  0.304663  0.201584  0.525845  1
  Li  Li14919  1  0.701584  0.195337  0.474155  1
  Li  Li14920  1  0.974155  0.195337  0.201584  1
  Li  Li14921  1  0.974155  0.804663  0.798416  1
  Li  Li14922  1  0.304663  0.525845  0.201584  1
  Li  Li14923  1  0.025845  0.195337  0.798416  1
  Li  Li14924  1  0.695337  0.474155  0.201584  1
  Li  Li14925  1  0.025845  0.804663  0.201584  1
  Li  Li14926  1  0.304663  0.474155  0.798416  1
  Li  Li14927  1  0.695337  0.525845  0.798416  1
  Li  Li14928  1  0.201584  0.974155  0.195337  1
  Li  Li14929  1  0.474155  0.298416  0.804663  1
  Li  Li14930  1  0.798416  0.025845  0.195337  1
  Li  Li14931  1  0.525845  0.701584  0.804663  1
  Li  Li14932  1  0.201584  0.025845  0.804663  1
  Li  Li14933  1  0.525845  0.298416  0.195337  1
  Li  Li14934  1  0.798416  0.974155  0.804663  1
  Li  Li14935  1  0.474155  0.701584  0.195337  1
  Li  Li14936  1  0.195337  0.701584  0.474155  1
  Li  Li14937  1  0.201584  0.304663  0.525845  1
  Li  Li14938  1  0.804663  0.298416  0.474155  1
  Li  Li14939  1  0.798416  0.695337  0.525845  1
  Li  Li14940  1  0.195337  0.298416  0.525845  1
  Li  Li14941  1  0.798416  0.304663  0.474155  1
  Li  Li14942  1  0.804663  0.701584  0.525845  1
  Li  Li14943  1  0.201584  0.695337  0.474155  1
  Li  Li14944  1  0.474155  0.695337  0.201584  1
  Li  Li14945  1  0.474155  0.304663  0.798416  1
  Li  Li14946  1  0.804663  0.025845  0.201584  1
  Li  Li14947  1  0.525845  0.695337  0.798416  1
  Li  Li14948  1  0.195337  0.974155  0.201584  1
  Li  Li14949  1  0.525845  0.304663  0.201584  1
  Li  Li14950  1  0.804663  0.974155  0.798416  1
  Li  Li14951  1  0.195337  0.025845  0.798416  1
  Li  Li14952  1  0.201584  0.474155  0.695337  1
  Li  Li14953  1  0.474155  0.798416  0.304663  1
  Li  Li14954  1  0.798416  0.525845  0.695337  1
  Li  Li14955  1  0.525845  0.201584  0.304663  1
  Li  Li14956  1  0.201584  0.525845  0.304663  1
  Li  Li14957  1  0.525845  0.798416  0.695337  1
  Li  Li14958  1  0.798416  0.474155  0.304663  1
  Li  Li14959  1  0.474155  0.201584  0.695337  1
  Li  Li14960  1  0.195337  0.201584  0.974155  1
  Li  Li14961  1  0.201584  0.804663  0.025845  1
  Li  Li14962  1  0.804663  0.798416  0.974155  1
  Li  Li14963  1  0.798416  0.195337  0.025845  1
  Li  Li14964  1  0.195337  0.798416  0.025845  1
  Li  Li14965  1  0.798416  0.804663  0.974155  1
  Li  Li14966  1  0.804663  0.201584  0.025845  1
  Li  Li14967  1  0.201584  0.195337  0.974155  1
  Li  Li14968  1  0.474155  0.195337  0.701584  1
  Li  Li14969  1  0.474155  0.804663  0.298416  1
  Li  Li14970  1  0.804663  0.525845  0.701584  1
  Li  Li14971  1  0.525845  0.195337  0.298416  1
  Li  Li14972  1  0.195337  0.474155  0.701584  1
  Li  Li14973  1  0.525845  0.804663  0.701584  1
  Li  Li14974  1  0.804663  0.474155  0.298416  1
  Li  Li14975  1  0.195337  0.525845  0.298416  1
  Li  Li14976  1  0.820222  0.985373  0.787886  1
  Li  Li14977  1  0.985373  0.179778  0.212114  1
  Li  Li14978  1  0.179778  0.014627  0.787886  1
  Li  Li14979  1  0.014627  0.820222  0.212114  1
  Li  Li14980  1  0.820222  0.014627  0.212114  1
  Li  Li14981  1  0.014627  0.179778  0.787886  1
  Li  Li14982  1  0.179778  0.985373  0.212114  1
  Li  Li14983  1  0.985373  0.820222  0.787886  1
  Li  Li14984  1  0.787886  0.820222  0.985373  1
  Li  Li14985  1  0.820222  0.212114  0.014627  1
  Li  Li14986  1  0.212114  0.179778  0.985373  1
  Li  Li14987  1  0.179778  0.787886  0.014627  1
  Li  Li14988  1  0.787886  0.179778  0.014627  1
  Li  Li14989  1  0.179778  0.212114  0.985373  1
  Li  Li14990  1  0.212114  0.820222  0.014627  1
  Li  Li14991  1  0.820222  0.787886  0.985373  1
  Li  Li14992  1  0.985373  0.787886  0.820222  1
  Li  Li14993  1  0.985373  0.212114  0.179778  1
  Li  Li14994  1  0.212114  0.014627  0.820222  1
  Li  Li14995  1  0.014627  0.787886  0.179778  1
  Li  Li14996  1  0.787886  0.985373  0.820222  1
  Li  Li14997  1  0.014627  0.212114  0.820222  1
  Li  Li14998  1  0.212114  0.985373  0.179778  1
  Li  Li14999  1  0.787886  0.014627  0.179778  1
  Li  Li15000  1  0.820222  0.485373  0.287886  1
  Li  Li15001  1  0.985373  0.679778  0.712114  1
  Li  Li15002  1  0.179778  0.514627  0.287886  1
  Li  Li15003  1  0.014627  0.320222  0.712114  1
  Li  Li15004  1  0.820222  0.514627  0.712114  1
  Li  Li15005  1  0.014627  0.679778  0.287886  1
  Li  Li15006  1  0.179778  0.485373  0.712114  1
  Li  Li15007  1  0.985373  0.320222  0.287886  1
  Li  Li15008  1  0.787886  0.320222  0.485373  1
  Li  Li15009  1  0.820222  0.712114  0.514627  1
  Li  Li15010  1  0.212114  0.679778  0.485373  1
  Li  Li15011  1  0.179778  0.287886  0.514627  1
  Li  Li15012  1  0.787886  0.679778  0.514627  1
  Li  Li15013  1  0.179778  0.712114  0.485373  1
  Li  Li15014  1  0.212114  0.320222  0.514627  1
  Li  Li15015  1  0.820222  0.287886  0.485373  1
  Li  Li15016  1  0.985373  0.287886  0.320222  1
  Li  Li15017  1  0.985373  0.712114  0.679778  1
  Li  Li15018  1  0.212114  0.514627  0.320222  1
  Li  Li15019  1  0.014627  0.287886  0.679778  1
  Li  Li15020  1  0.787886  0.485373  0.320222  1
  Li  Li15021  1  0.014627  0.712114  0.320222  1
  Li  Li15022  1  0.212114  0.485373  0.679778  1
  Li  Li15023  1  0.787886  0.514627  0.679778  1
  Li  Li15024  1  0.320222  0.985373  0.287886  1
  Li  Li15025  1  0.485373  0.179778  0.712114  1
  Li  Li15026  1  0.679778  0.014627  0.287886  1
  Li  Li15027  1  0.514627  0.820222  0.712114  1
  Li  Li15028  1  0.320222  0.014627  0.712114  1
  Li  Li15029  1  0.514627  0.179778  0.287886  1
  Li  Li15030  1  0.679778  0.985373  0.712114  1
  Li  Li15031  1  0.485373  0.820222  0.287886  1
  Li  Li15032  1  0.287886  0.820222  0.485373  1
  Li  Li15033  1  0.320222  0.212114  0.514627  1
  Li  Li15034  1  0.712114  0.179778  0.485373  1
  Li  Li15035  1  0.679778  0.787886  0.514627  1
  Li  Li15036  1  0.287886  0.179778  0.514627  1
  Li  Li15037  1  0.679778  0.212114  0.485373  1
  Li  Li15038  1  0.712114  0.820222  0.514627  1
  Li  Li15039  1  0.320222  0.787886  0.485373  1
  Li  Li15040  1  0.485373  0.787886  0.320222  1
  Li  Li15041  1  0.485373  0.212114  0.679778  1
  Li  Li15042  1  0.712114  0.014627  0.320222  1
  Li  Li15043  1  0.514627  0.787886  0.679778  1
  Li  Li15044  1  0.287886  0.985373  0.320222  1
  Li  Li15045  1  0.514627  0.212114  0.320222  1
  Li  Li15046  1  0.712114  0.985373  0.679778  1
  Li  Li15047  1  0.287886  0.014627  0.679778  1
  Li  Li15048  1  0.320222  0.485373  0.787886  1
  Li  Li15049  1  0.485373  0.679778  0.212114  1
  Li  Li15050  1  0.679778  0.514627  0.787886  1
  Li  Li15051  1  0.514627  0.320222  0.212114  1
  Li  Li15052  1  0.320222  0.514627  0.212114  1
  Li  Li15053  1  0.514627  0.679778  0.787886  1
  Li  Li15054  1  0.679778  0.485373  0.212114  1
  Li  Li15055  1  0.485373  0.320222  0.787886  1
  Li  Li15056  1  0.287886  0.320222  0.985373  1
  Li  Li15057  1  0.320222  0.712114  0.014627  1
  Li  Li15058  1  0.712114  0.679778  0.985373  1
  Li  Li15059  1  0.679778  0.287886  0.014627  1
  Li  Li15060  1  0.287886  0.679778  0.014627  1
  Li  Li15061  1  0.679778  0.712114  0.985373  1
  Li  Li15062  1  0.712114  0.320222  0.014627  1
  Li  Li15063  1  0.320222  0.287886  0.985373  1
  Li  Li15064  1  0.485373  0.287886  0.820222  1
  Li  Li15065  1  0.485373  0.712114  0.179778  1
  Li  Li15066  1  0.712114  0.514627  0.820222  1
  Li  Li15067  1  0.514627  0.287886  0.179778  1
  Li  Li15068  1  0.287886  0.485373  0.820222  1
  Li  Li15069  1  0.514627  0.712114  0.820222  1
  Li  Li15070  1  0.712114  0.485373  0.179778  1
  Li  Li15071  1  0.287886  0.514627  0.179778  1
  Li  Li15072  1  0.530166  0.786276  0.718423  1
  Li  Li15073  1  0.786276  0.469834  0.281577  1
  Li  Li15074  1  0.469834  0.213724  0.718423  1
  Li  Li15075  1  0.213724  0.530166  0.281577  1
  Li  Li15076  1  0.530166  0.213724  0.281577  1
  Li  Li15077  1  0.213724  0.469834  0.718423  1
  Li  Li15078  1  0.469834  0.786276  0.281577  1
  Li  Li15079  1  0.786276  0.530166  0.718423  1
  Li  Li15080  1  0.718423  0.530166  0.786276  1
  Li  Li15081  1  0.530166  0.281577  0.213724  1
  Li  Li15082  1  0.281577  0.469834  0.786276  1
  Li  Li15083  1  0.469834  0.718423  0.213724  1
  Li  Li15084  1  0.718423  0.469834  0.213724  1
  Li  Li15085  1  0.469834  0.281577  0.786276  1
  Li  Li15086  1  0.281577  0.530166  0.213724  1
  Li  Li15087  1  0.530166  0.718423  0.786276  1
  Li  Li15088  1  0.786276  0.718423  0.530166  1
  Li  Li15089  1  0.786276  0.281577  0.469834  1
  Li  Li15090  1  0.281577  0.213724  0.530166  1
  Li  Li15091  1  0.213724  0.718423  0.469834  1
  Li  Li15092  1  0.718423  0.786276  0.530166  1
  Li  Li15093  1  0.213724  0.281577  0.530166  1
  Li  Li15094  1  0.281577  0.786276  0.469834  1
  Li  Li15095  1  0.718423  0.213724  0.469834  1
  Li  Li15096  1  0.530166  0.286276  0.218423  1
  Li  Li15097  1  0.786276  0.969834  0.781577  1
  Li  Li15098  1  0.469834  0.713724  0.218423  1
  Li  Li15099  1  0.213724  0.030166  0.781577  1
  Li  Li15100  1  0.530166  0.713724  0.781577  1
  Li  Li15101  1  0.213724  0.969834  0.218423  1
  Li  Li15102  1  0.469834  0.286276  0.781577  1
  Li  Li15103  1  0.786276  0.030166  0.218423  1
  Li  Li15104  1  0.718423  0.030166  0.286276  1
  Li  Li15105  1  0.530166  0.781577  0.713724  1
  Li  Li15106  1  0.281577  0.969834  0.286276  1
  Li  Li15107  1  0.469834  0.218423  0.713724  1
  Li  Li15108  1  0.718423  0.969834  0.713724  1
  Li  Li15109  1  0.469834  0.781577  0.286276  1
  Li  Li15110  1  0.281577  0.030166  0.713724  1
  Li  Li15111  1  0.530166  0.218423  0.286276  1
  Li  Li15112  1  0.786276  0.218423  0.030166  1
  Li  Li15113  1  0.786276  0.781577  0.969834  1
  Li  Li15114  1  0.281577  0.713724  0.030166  1
  Li  Li15115  1  0.213724  0.218423  0.969834  1
  Li  Li15116  1  0.718423  0.286276  0.030166  1
  Li  Li15117  1  0.213724  0.781577  0.030166  1
  Li  Li15118  1  0.281577  0.286276  0.969834  1
  Li  Li15119  1  0.718423  0.713724  0.969834  1
  Li  Li15120  1  0.030166  0.786276  0.218423  1
  Li  Li15121  1  0.286276  0.469834  0.781577  1
  Li  Li15122  1  0.969834  0.213724  0.218423  1
  Li  Li15123  1  0.713724  0.530166  0.781577  1
  Li  Li15124  1  0.030166  0.213724  0.781577  1
  Li  Li15125  1  0.713724  0.469834  0.218423  1
  Li  Li15126  1  0.969834  0.786276  0.781577  1
  Li  Li15127  1  0.286276  0.530166  0.218423  1
  Li  Li15128  1  0.218423  0.530166  0.286276  1
  Li  Li15129  1  0.030166  0.281577  0.713724  1
  Li  Li15130  1  0.781577  0.469834  0.286276  1
  Li  Li15131  1  0.969834  0.718423  0.713724  1
  Li  Li15132  1  0.218423  0.469834  0.713724  1
  Li  Li15133  1  0.969834  0.281577  0.286276  1
  Li  Li15134  1  0.781577  0.530166  0.713724  1
  Li  Li15135  1  0.030166  0.718423  0.286276  1
  Li  Li15136  1  0.286276  0.718423  0.030166  1
  Li  Li15137  1  0.286276  0.281577  0.969834  1
  Li  Li15138  1  0.781577  0.213724  0.030166  1
  Li  Li15139  1  0.713724  0.718423  0.969834  1
  Li  Li15140  1  0.218423  0.786276  0.030166  1
  Li  Li15141  1  0.713724  0.281577  0.030166  1
  Li  Li15142  1  0.781577  0.786276  0.969834  1
  Li  Li15143  1  0.218423  0.213724  0.969834  1
  Li  Li15144  1  0.030166  0.286276  0.718423  1
  Li  Li15145  1  0.286276  0.969834  0.281577  1
  Li  Li15146  1  0.969834  0.713724  0.718423  1
  Li  Li15147  1  0.713724  0.030166  0.281577  1
  Li  Li15148  1  0.030166  0.713724  0.281577  1
  Li  Li15149  1  0.713724  0.969834  0.718423  1
  Li  Li15150  1  0.969834  0.286276  0.281577  1
  Li  Li15151  1  0.286276  0.030166  0.718423  1
  Li  Li15152  1  0.218423  0.030166  0.786276  1
  Li  Li15153  1  0.030166  0.781577  0.213724  1
  Li  Li15154  1  0.781577  0.969834  0.786276  1
  Li  Li15155  1  0.969834  0.218423  0.213724  1
  Li  Li15156  1  0.218423  0.969834  0.213724  1
  Li  Li15157  1  0.969834  0.781577  0.786276  1
  Li  Li15158  1  0.781577  0.030166  0.213724  1
  Li  Li15159  1  0.030166  0.218423  0.786276  1
  Li  Li15160  1  0.286276  0.218423  0.530166  1
  Li  Li15161  1  0.286276  0.781577  0.469834  1
  Li  Li15162  1  0.781577  0.713724  0.530166  1
  Li  Li15163  1  0.713724  0.218423  0.469834  1
  Li  Li15164  1  0.218423  0.286276  0.530166  1
  Li  Li15165  1  0.713724  0.781577  0.530166  1
  Li  Li15166  1  0.781577  0.286276  0.469834  1
  Li  Li15167  1  0.218423  0.713724  0.469834  1
  Li  Li15168  1  0.719784  0.983643  0.718512  1
  Li  Li15169  1  0.983643  0.280216  0.281488  1
  Li  Li15170  1  0.280216  0.016357  0.718512  1
  Li  Li15171  1  0.016357  0.719784  0.281488  1
  Li  Li15172  1  0.719784  0.016357  0.281488  1
  Li  Li15173  1  0.016357  0.280216  0.718512  1
  Li  Li15174  1  0.280216  0.983643  0.281488  1
  Li  Li15175  1  0.983643  0.719784  0.718512  1
  Li  Li15176  1  0.718512  0.719784  0.983643  1
  Li  Li15177  1  0.719784  0.281488  0.016357  1
  Li  Li15178  1  0.281488  0.280216  0.983643  1
  Li  Li15179  1  0.280216  0.718512  0.016357  1
  Li  Li15180  1  0.718512  0.280216  0.016357  1
  Li  Li15181  1  0.280216  0.281488  0.983643  1
  Li  Li15182  1  0.281488  0.719784  0.016357  1
  Li  Li15183  1  0.719784  0.718512  0.983643  1
  Li  Li15184  1  0.983643  0.718512  0.719784  1
  Li  Li15185  1  0.983643  0.281488  0.280216  1
  Li  Li15186  1  0.281488  0.016357  0.719784  1
  Li  Li15187  1  0.016357  0.718512  0.280216  1
  Li  Li15188  1  0.718512  0.983643  0.719784  1
  Li  Li15189  1  0.016357  0.281488  0.719784  1
  Li  Li15190  1  0.281488  0.983643  0.280216  1
  Li  Li15191  1  0.718512  0.016357  0.280216  1
  Li  Li15192  1  0.719784  0.483643  0.218512  1
  Li  Li15193  1  0.983643  0.780216  0.781488  1
  Li  Li15194  1  0.280216  0.516357  0.218512  1
  Li  Li15195  1  0.016357  0.219784  0.781488  1
  Li  Li15196  1  0.719784  0.516357  0.781488  1
  Li  Li15197  1  0.016357  0.780216  0.218512  1
  Li  Li15198  1  0.280216  0.483643  0.781488  1
  Li  Li15199  1  0.983643  0.219784  0.218512  1
  Li  Li15200  1  0.718512  0.219784  0.483643  1
  Li  Li15201  1  0.719784  0.781488  0.516357  1
  Li  Li15202  1  0.281488  0.780216  0.483643  1
  Li  Li15203  1  0.280216  0.218512  0.516357  1
  Li  Li15204  1  0.718512  0.780216  0.516357  1
  Li  Li15205  1  0.280216  0.781488  0.483643  1
  Li  Li15206  1  0.281488  0.219784  0.516357  1
  Li  Li15207  1  0.719784  0.218512  0.483643  1
  Li  Li15208  1  0.983643  0.218512  0.219784  1
  Li  Li15209  1  0.983643  0.781488  0.780216  1
  Li  Li15210  1  0.281488  0.516357  0.219784  1
  Li  Li15211  1  0.016357  0.218512  0.780216  1
  Li  Li15212  1  0.718512  0.483643  0.219784  1
  Li  Li15213  1  0.016357  0.781488  0.219784  1
  Li  Li15214  1  0.281488  0.483643  0.780216  1
  Li  Li15215  1  0.718512  0.516357  0.780216  1
  Li  Li15216  1  0.219784  0.983643  0.218512  1
  Li  Li15217  1  0.483643  0.280216  0.781488  1
  Li  Li15218  1  0.780216  0.016357  0.218512  1
  Li  Li15219  1  0.516357  0.719784  0.781488  1
  Li  Li15220  1  0.219784  0.016357  0.781488  1
  Li  Li15221  1  0.516357  0.280216  0.218512  1
  Li  Li15222  1  0.780216  0.983643  0.781488  1
  Li  Li15223  1  0.483643  0.719784  0.218512  1
  Li  Li15224  1  0.218512  0.719784  0.483643  1
  Li  Li15225  1  0.219784  0.281488  0.516357  1
  Li  Li15226  1  0.781488  0.280216  0.483643  1
  Li  Li15227  1  0.780216  0.718512  0.516357  1
  Li  Li15228  1  0.218512  0.280216  0.516357  1
  Li  Li15229  1  0.780216  0.281488  0.483643  1
  Li  Li15230  1  0.781488  0.719784  0.516357  1
  Li  Li15231  1  0.219784  0.718512  0.483643  1
  Li  Li15232  1  0.483643  0.718512  0.219784  1
  Li  Li15233  1  0.483643  0.281488  0.780216  1
  Li  Li15234  1  0.781488  0.016357  0.219784  1
  Li  Li15235  1  0.516357  0.718512  0.780216  1
  Li  Li15236  1  0.218512  0.983643  0.219784  1
  Li  Li15237  1  0.516357  0.281488  0.219784  1
  Li  Li15238  1  0.781488  0.983643  0.780216  1
  Li  Li15239  1  0.218512  0.016357  0.780216  1
  Li  Li15240  1  0.219784  0.483643  0.718512  1
  Li  Li15241  1  0.483643  0.780216  0.281488  1
  Li  Li15242  1  0.780216  0.516357  0.718512  1
  Li  Li15243  1  0.516357  0.219784  0.281488  1
  Li  Li15244  1  0.219784  0.516357  0.281488  1
  Li  Li15245  1  0.516357  0.780216  0.718512  1
  Li  Li15246  1  0.780216  0.483643  0.281488  1
  Li  Li15247  1  0.483643  0.219784  0.718512  1
  Li  Li15248  1  0.218512  0.219784  0.983643  1
  Li  Li15249  1  0.219784  0.781488  0.016357  1
  Li  Li15250  1  0.781488  0.780216  0.983643  1
  Li  Li15251  1  0.780216  0.218512  0.016357  1
  Li  Li15252  1  0.218512  0.780216  0.016357  1
  Li  Li15253  1  0.780216  0.781488  0.983643  1
  Li  Li15254  1  0.781488  0.219784  0.016357  1
  Li  Li15255  1  0.219784  0.218512  0.983643  1
  Li  Li15256  1  0.483643  0.218512  0.719784  1
  Li  Li15257  1  0.483643  0.781488  0.280216  1
  Li  Li15258  1  0.781488  0.516357  0.719784  1
  Li  Li15259  1  0.516357  0.218512  0.280216  1
  Li  Li15260  1  0.218512  0.483643  0.719784  1
  Li  Li15261  1  0.516357  0.781488  0.719784  1
  Li  Li15262  1  0.781488  0.483643  0.280216  1
  Li  Li15263  1  0.218512  0.516357  0.280216  1
  Li  Li15264  1  0.772367  0.578756  0.595288  1
  Li  Li15265  1  0.578756  0.227633  0.404712  1
  Li  Li15266  1  0.227633  0.421244  0.595288  1
  Li  Li15267  1  0.421244  0.772367  0.404712  1
  Li  Li15268  1  0.772367  0.421244  0.404712  1
  Li  Li15269  1  0.421244  0.227633  0.595288  1
  Li  Li15270  1  0.227633  0.578756  0.404712  1
  Li  Li15271  1  0.578756  0.772367  0.595288  1
  Li  Li15272  1  0.595288  0.772367  0.578756  1
  Li  Li15273  1  0.772367  0.404712  0.421244  1
  Li  Li15274  1  0.404712  0.227633  0.578756  1
  Li  Li15275  1  0.227633  0.595288  0.421244  1
  Li  Li15276  1  0.595288  0.227633  0.421244  1
  Li  Li15277  1  0.227633  0.404712  0.578756  1
  Li  Li15278  1  0.404712  0.772367  0.421244  1
  Li  Li15279  1  0.772367  0.595288  0.578756  1
  Li  Li15280  1  0.578756  0.595288  0.772367  1
  Li  Li15281  1  0.578756  0.404712  0.227633  1
  Li  Li15282  1  0.404712  0.421244  0.772367  1
  Li  Li15283  1  0.421244  0.595288  0.227633  1
  Li  Li15284  1  0.595288  0.578756  0.772367  1
  Li  Li15285  1  0.421244  0.404712  0.772367  1
  Li  Li15286  1  0.404712  0.578756  0.227633  1
  Li  Li15287  1  0.595288  0.421244  0.227633  1
  Li  Li15288  1  0.772367  0.078756  0.095288  1
  Li  Li15289  1  0.578756  0.727633  0.904712  1
  Li  Li15290  1  0.227633  0.921244  0.095288  1
  Li  Li15291  1  0.421244  0.272367  0.904712  1
  Li  Li15292  1  0.772367  0.921244  0.904712  1
  Li  Li15293  1  0.421244  0.727633  0.095288  1
  Li  Li15294  1  0.227633  0.078756  0.904712  1
  Li  Li15295  1  0.578756  0.272367  0.095288  1
  Li  Li15296  1  0.595288  0.272367  0.078756  1
  Li  Li15297  1  0.772367  0.904712  0.921244  1
  Li  Li15298  1  0.404712  0.727633  0.078756  1
  Li  Li15299  1  0.227633  0.095288  0.921244  1
  Li  Li15300  1  0.595288  0.727633  0.921244  1
  Li  Li15301  1  0.227633  0.904712  0.078756  1
  Li  Li15302  1  0.404712  0.272367  0.921244  1
  Li  Li15303  1  0.772367  0.095288  0.078756  1
  Li  Li15304  1  0.578756  0.095288  0.272367  1
  Li  Li15305  1  0.578756  0.904712  0.727633  1
  Li  Li15306  1  0.404712  0.921244  0.272367  1
  Li  Li15307  1  0.421244  0.095288  0.727633  1
  Li  Li15308  1  0.595288  0.078756  0.272367  1
  Li  Li15309  1  0.421244  0.904712  0.272367  1
  Li  Li15310  1  0.404712  0.078756  0.727633  1
  Li  Li15311  1  0.595288  0.921244  0.727633  1
  Li  Li15312  1  0.272367  0.578756  0.095288  1
  Li  Li15313  1  0.078756  0.227633  0.904712  1
  Li  Li15314  1  0.727633  0.421244  0.095288  1
  Li  Li15315  1  0.921244  0.772367  0.904712  1
  Li  Li15316  1  0.272367  0.421244  0.904712  1
  Li  Li15317  1  0.921244  0.227633  0.095288  1
  Li  Li15318  1  0.727633  0.578756  0.904712  1
  Li  Li15319  1  0.078756  0.772367  0.095288  1
  Li  Li15320  1  0.095288  0.772367  0.078756  1
  Li  Li15321  1  0.272367  0.404712  0.921244  1
  Li  Li15322  1  0.904712  0.227633  0.078756  1
  Li  Li15323  1  0.727633  0.595288  0.921244  1
  Li  Li15324  1  0.095288  0.227633  0.921244  1
  Li  Li15325  1  0.727633  0.404712  0.078756  1
  Li  Li15326  1  0.904712  0.772367  0.921244  1
  Li  Li15327  1  0.272367  0.595288  0.078756  1
  Li  Li15328  1  0.078756  0.595288  0.272367  1
  Li  Li15329  1  0.078756  0.404712  0.727633  1
  Li  Li15330  1  0.904712  0.421244  0.272367  1
  Li  Li15331  1  0.921244  0.595288  0.727633  1
  Li  Li15332  1  0.095288  0.578756  0.272367  1
  Li  Li15333  1  0.921244  0.404712  0.272367  1
  Li  Li15334  1  0.904712  0.578756  0.727633  1
  Li  Li15335  1  0.095288  0.421244  0.727633  1
  Li  Li15336  1  0.272367  0.078756  0.595288  1
  Li  Li15337  1  0.078756  0.727633  0.404712  1
  Li  Li15338  1  0.727633  0.921244  0.595288  1
  Li  Li15339  1  0.921244  0.272367  0.404712  1
  Li  Li15340  1  0.272367  0.921244  0.404712  1
  Li  Li15341  1  0.921244  0.727633  0.595288  1
  Li  Li15342  1  0.727633  0.078756  0.404712  1
  Li  Li15343  1  0.078756  0.272367  0.595288  1
  Li  Li15344  1  0.095288  0.272367  0.578756  1
  Li  Li15345  1  0.272367  0.904712  0.421244  1
  Li  Li15346  1  0.904712  0.727633  0.578756  1
  Li  Li15347  1  0.727633  0.095288  0.421244  1
  Li  Li15348  1  0.095288  0.727633  0.421244  1
  Li  Li15349  1  0.727633  0.904712  0.578756  1
  Li  Li15350  1  0.904712  0.272367  0.421244  1
  Li  Li15351  1  0.272367  0.095288  0.578756  1
  Li  Li15352  1  0.078756  0.095288  0.772367  1
  Li  Li15353  1  0.078756  0.904712  0.227633  1
  Li  Li15354  1  0.904712  0.921244  0.772367  1
  Li  Li15355  1  0.921244  0.095288  0.227633  1
  Li  Li15356  1  0.095288  0.078756  0.772367  1
  Li  Li15357  1  0.921244  0.904712  0.772367  1
  Li  Li15358  1  0.904712  0.078756  0.227633  1
  Li  Li15359  1  0.095288  0.921244  0.227633  1
  Li  Li15360  1  0.781966  0.515487  0.713755  1
  Li  Li15361  1  0.515487  0.218034  0.286245  1
  Li  Li15362  1  0.218034  0.484513  0.713755  1
  Li  Li15363  1  0.484513  0.781966  0.286245  1
  Li  Li15364  1  0.781966  0.484513  0.286245  1
  Li  Li15365  1  0.484513  0.218034  0.713755  1
  Li  Li15366  1  0.218034  0.515487  0.286245  1
  Li  Li15367  1  0.515487  0.781966  0.713755  1
  Li  Li15368  1  0.713755  0.781966  0.515487  1
  Li  Li15369  1  0.781966  0.286245  0.484513  1
  Li  Li15370  1  0.286245  0.218034  0.515487  1
  Li  Li15371  1  0.218034  0.713755  0.484513  1
  Li  Li15372  1  0.713755  0.218034  0.484513  1
  Li  Li15373  1  0.218034  0.286245  0.515487  1
  Li  Li15374  1  0.286245  0.781966  0.484513  1
  Li  Li15375  1  0.781966  0.713755  0.515487  1
  Li  Li15376  1  0.515487  0.713755  0.781966  1
  Li  Li15377  1  0.515487  0.286245  0.218034  1
  Li  Li15378  1  0.286245  0.484513  0.781966  1
  Li  Li15379  1  0.484513  0.713755  0.218034  1
  Li  Li15380  1  0.713755  0.515487  0.781966  1
  Li  Li15381  1  0.484513  0.286245  0.781966  1
  Li  Li15382  1  0.286245  0.515487  0.218034  1
  Li  Li15383  1  0.713755  0.484513  0.218034  1
  Li  Li15384  1  0.781966  0.015487  0.213755  1
  Li  Li15385  1  0.515487  0.718034  0.786245  1
  Li  Li15386  1  0.218034  0.984513  0.213755  1
  Li  Li15387  1  0.484513  0.281966  0.786245  1
  Li  Li15388  1  0.781966  0.984513  0.786245  1
  Li  Li15389  1  0.484513  0.718034  0.213755  1
  Li  Li15390  1  0.218034  0.015487  0.786245  1
  Li  Li15391  1  0.515487  0.281966  0.213755  1
  Li  Li15392  1  0.713755  0.281966  0.015487  1
  Li  Li15393  1  0.781966  0.786245  0.984513  1
  Li  Li15394  1  0.286245  0.718034  0.015487  1
  Li  Li15395  1  0.218034  0.213755  0.984513  1
  Li  Li15396  1  0.713755  0.718034  0.984513  1
  Li  Li15397  1  0.218034  0.786245  0.015487  1
  Li  Li15398  1  0.286245  0.281966  0.984513  1
  Li  Li15399  1  0.781966  0.213755  0.015487  1
  Li  Li15400  1  0.515487  0.213755  0.281966  1
  Li  Li15401  1  0.515487  0.786245  0.718034  1
  Li  Li15402  1  0.286245  0.984513  0.281966  1
  Li  Li15403  1  0.484513  0.213755  0.718034  1
  Li  Li15404  1  0.713755  0.015487  0.281966  1
  Li  Li15405  1  0.484513  0.786245  0.281966  1
  Li  Li15406  1  0.286245  0.015487  0.718034  1
  Li  Li15407  1  0.713755  0.984513  0.718034  1
  Li  Li15408  1  0.281966  0.515487  0.213755  1
  Li  Li15409  1  0.015487  0.218034  0.786245  1
  Li  Li15410  1  0.718034  0.484513  0.213755  1
  Li  Li15411  1  0.984513  0.781966  0.786245  1
  Li  Li15412  1  0.281966  0.484513  0.786245  1
  Li  Li15413  1  0.984513  0.218034  0.213755  1
  Li  Li15414  1  0.718034  0.515487  0.786245  1
  Li  Li15415  1  0.015487  0.781966  0.213755  1
  Li  Li15416  1  0.213755  0.781966  0.015487  1
  Li  Li15417  1  0.281966  0.286245  0.984513  1
  Li  Li15418  1  0.786245  0.218034  0.015487  1
  Li  Li15419  1  0.718034  0.713755  0.984513  1
  Li  Li15420  1  0.213755  0.218034  0.984513  1
  Li  Li15421  1  0.718034  0.286245  0.015487  1
  Li  Li15422  1  0.786245  0.781966  0.984513  1
  Li  Li15423  1  0.281966  0.713755  0.015487  1
  Li  Li15424  1  0.015487  0.713755  0.281966  1
  Li  Li15425  1  0.015487  0.286245  0.718034  1
  Li  Li15426  1  0.786245  0.484513  0.281966  1
  Li  Li15427  1  0.984513  0.713755  0.718034  1
  Li  Li15428  1  0.213755  0.515487  0.281966  1
  Li  Li15429  1  0.984513  0.286245  0.281966  1
  Li  Li15430  1  0.786245  0.515487  0.718034  1
  Li  Li15431  1  0.213755  0.484513  0.718034  1
  Li  Li15432  1  0.281966  0.015487  0.713755  1
  Li  Li15433  1  0.015487  0.718034  0.286245  1
  Li  Li15434  1  0.718034  0.984513  0.713755  1
  Li  Li15435  1  0.984513  0.281966  0.286245  1
  Li  Li15436  1  0.281966  0.984513  0.286245  1
  Li  Li15437  1  0.984513  0.718034  0.713755  1
  Li  Li15438  1  0.718034  0.015487  0.286245  1
  Li  Li15439  1  0.015487  0.281966  0.713755  1
  Li  Li15440  1  0.213755  0.281966  0.515487  1
  Li  Li15441  1  0.281966  0.786245  0.484513  1
  Li  Li15442  1  0.786245  0.718034  0.515487  1
  Li  Li15443  1  0.718034  0.213755  0.484513  1
  Li  Li15444  1  0.213755  0.718034  0.484513  1
  Li  Li15445  1  0.718034  0.786245  0.515487  1
  Li  Li15446  1  0.786245  0.281966  0.484513  1
  Li  Li15447  1  0.281966  0.213755  0.515487  1
  Li  Li15448  1  0.015487  0.213755  0.781966  1
  Li  Li15449  1  0.015487  0.786245  0.218034  1
  Li  Li15450  1  0.786245  0.984513  0.781966  1
  Li  Li15451  1  0.984513  0.213755  0.218034  1
  Li  Li15452  1  0.213755  0.015487  0.781966  1
  Li  Li15453  1  0.984513  0.786245  0.781966  1
  Li  Li15454  1  0.786245  0.015487  0.218034  1
  Li  Li15455  1  0.213755  0.984513  0.218034  1
  Li  Li15456  1  0.718323  0.517409  0.786232  1
  Li  Li15457  1  0.517409  0.281677  0.213768  1
  Li  Li15458  1  0.281677  0.482591  0.786232  1
  Li  Li15459  1  0.482591  0.718323  0.213768  1
  Li  Li15460  1  0.718323  0.482591  0.213768  1
  Li  Li15461  1  0.482591  0.281677  0.786232  1
  Li  Li15462  1  0.281677  0.517409  0.213768  1
  Li  Li15463  1  0.517409  0.718323  0.786232  1
  Li  Li15464  1  0.786232  0.718323  0.517409  1
  Li  Li15465  1  0.718323  0.213768  0.482591  1
  Li  Li15466  1  0.213768  0.281677  0.517409  1
  Li  Li15467  1  0.281677  0.786232  0.482591  1
  Li  Li15468  1  0.786232  0.281677  0.482591  1
  Li  Li15469  1  0.281677  0.213768  0.517409  1
  Li  Li15470  1  0.213768  0.718323  0.482591  1
  Li  Li15471  1  0.718323  0.786232  0.517409  1
  Li  Li15472  1  0.517409  0.786232  0.718323  1
  Li  Li15473  1  0.517409  0.213768  0.281677  1
  Li  Li15474  1  0.213768  0.482591  0.718323  1
  Li  Li15475  1  0.482591  0.786232  0.281677  1
  Li  Li15476  1  0.786232  0.517409  0.718323  1
  Li  Li15477  1  0.482591  0.213768  0.718323  1
  Li  Li15478  1  0.213768  0.517409  0.281677  1
  Li  Li15479  1  0.786232  0.482591  0.281677  1
  Li  Li15480  1  0.718323  0.017409  0.286232  1
  Li  Li15481  1  0.517409  0.781677  0.713768  1
  Li  Li15482  1  0.281677  0.982591  0.286232  1
  Li  Li15483  1  0.482591  0.218323  0.713768  1
  Li  Li15484  1  0.718323  0.982591  0.713768  1
  Li  Li15485  1  0.482591  0.781677  0.286232  1
  Li  Li15486  1  0.281677  0.017409  0.713768  1
  Li  Li15487  1  0.517409  0.218323  0.286232  1
  Li  Li15488  1  0.786232  0.218323  0.017409  1
  Li  Li15489  1  0.718323  0.713768  0.982591  1
  Li  Li15490  1  0.213768  0.781677  0.017409  1
  Li  Li15491  1  0.281677  0.286232  0.982591  1
  Li  Li15492  1  0.786232  0.781677  0.982591  1
  Li  Li15493  1  0.281677  0.713768  0.017409  1
  Li  Li15494  1  0.213768  0.218323  0.982591  1
  Li  Li15495  1  0.718323  0.286232  0.017409  1
  Li  Li15496  1  0.517409  0.286232  0.218323  1
  Li  Li15497  1  0.517409  0.713768  0.781677  1
  Li  Li15498  1  0.213768  0.982591  0.218323  1
  Li  Li15499  1  0.482591  0.286232  0.781677  1
  Li  Li15500  1  0.786232  0.017409  0.218323  1
  Li  Li15501  1  0.482591  0.713768  0.218323  1
  Li  Li15502  1  0.213768  0.017409  0.781677  1
  Li  Li15503  1  0.786232  0.982591  0.781677  1
  Li  Li15504  1  0.218323  0.517409  0.286232  1
  Li  Li15505  1  0.017409  0.281677  0.713768  1
  Li  Li15506  1  0.781677  0.482591  0.286232  1
  Li  Li15507  1  0.982591  0.718323  0.713768  1
  Li  Li15508  1  0.218323  0.482591  0.713768  1
  Li  Li15509  1  0.982591  0.281677  0.286232  1
  Li  Li15510  1  0.781677  0.517409  0.713768  1
  Li  Li15511  1  0.017409  0.718323  0.286232  1
  Li  Li15512  1  0.286232  0.718323  0.017409  1
  Li  Li15513  1  0.218323  0.213768  0.982591  1
  Li  Li15514  1  0.713768  0.281677  0.017409  1
  Li  Li15515  1  0.781677  0.786232  0.982591  1
  Li  Li15516  1  0.286232  0.281677  0.982591  1
  Li  Li15517  1  0.781677  0.213768  0.017409  1
  Li  Li15518  1  0.713768  0.718323  0.982591  1
  Li  Li15519  1  0.218323  0.786232  0.017409  1
  Li  Li15520  1  0.017409  0.786232  0.218323  1
  Li  Li15521  1  0.017409  0.213768  0.781677  1
  Li  Li15522  1  0.713768  0.482591  0.218323  1
  Li  Li15523  1  0.982591  0.786232  0.781677  1
  Li  Li15524  1  0.286232  0.517409  0.218323  1
  Li  Li15525  1  0.982591  0.213768  0.218323  1
  Li  Li15526  1  0.713768  0.517409  0.781677  1
  Li  Li15527  1  0.286232  0.482591  0.781677  1
  Li  Li15528  1  0.218323  0.017409  0.786232  1
  Li  Li15529  1  0.017409  0.781677  0.213768  1
  Li  Li15530  1  0.781677  0.982591  0.786232  1
  Li  Li15531  1  0.982591  0.218323  0.213768  1
  Li  Li15532  1  0.218323  0.982591  0.213768  1
  Li  Li15533  1  0.982591  0.781677  0.786232  1
  Li  Li15534  1  0.781677  0.017409  0.213768  1
  Li  Li15535  1  0.017409  0.218323  0.786232  1
  Li  Li15536  1  0.286232  0.218323  0.517409  1
  Li  Li15537  1  0.218323  0.713768  0.482591  1
  Li  Li15538  1  0.713768  0.781677  0.517409  1
  Li  Li15539  1  0.781677  0.286232  0.482591  1
  Li  Li15540  1  0.286232  0.781677  0.482591  1
  Li  Li15541  1  0.781677  0.713768  0.517409  1
  Li  Li15542  1  0.713768  0.218323  0.482591  1
  Li  Li15543  1  0.218323  0.286232  0.517409  1
  Li  Li15544  1  0.017409  0.286232  0.718323  1
  Li  Li15545  1  0.017409  0.713768  0.281677  1
  Li  Li15546  1  0.713768  0.982591  0.718323  1
  Li  Li15547  1  0.982591  0.286232  0.281677  1
  Li  Li15548  1  0.286232  0.017409  0.718323  1
  Li  Li15549  1  0.982591  0.713768  0.718323  1
  Li  Li15550  1  0.713768  0.017409  0.281677  1
  Li  Li15551  1  0.286232  0.982591  0.281677  1
  Li  Li15552  1  0.748260  0.759019  0.978661  1
  Li  Li15553  1  0.759019  0.251740  0.021339  1
  Li  Li15554  1  0.251740  0.240981  0.978661  1
  Li  Li15555  1  0.240981  0.748260  0.021339  1
  Li  Li15556  1  0.748260  0.240981  0.021339  1
  Li  Li15557  1  0.240981  0.251740  0.978661  1
  Li  Li15558  1  0.251740  0.759019  0.021339  1
  Li  Li15559  1  0.759019  0.748260  0.978661  1
  Li  Li15560  1  0.978661  0.748260  0.759019  1
  Li  Li15561  1  0.748260  0.021339  0.240981  1
  Li  Li15562  1  0.021339  0.251740  0.759019  1
  Li  Li15563  1  0.251740  0.978661  0.240981  1
  Li  Li15564  1  0.978661  0.251740  0.240981  1
  Li  Li15565  1  0.251740  0.021339  0.759019  1
  Li  Li15566  1  0.021339  0.748260  0.240981  1
  Li  Li15567  1  0.748260  0.978661  0.759019  1
  Li  Li15568  1  0.759019  0.978661  0.748260  1
  Li  Li15569  1  0.759019  0.021339  0.251740  1
  Li  Li15570  1  0.021339  0.240981  0.748260  1
  Li  Li15571  1  0.240981  0.978661  0.251740  1
  Li  Li15572  1  0.978661  0.759019  0.748260  1
  Li  Li15573  1  0.240981  0.021339  0.748260  1
  Li  Li15574  1  0.021339  0.759019  0.251740  1
  Li  Li15575  1  0.978661  0.240981  0.251740  1
  Li  Li15576  1  0.748260  0.259019  0.478661  1
  Li  Li15577  1  0.759019  0.751740  0.521339  1
  Li  Li15578  1  0.251740  0.740981  0.478661  1
  Li  Li15579  1  0.240981  0.248260  0.521339  1
  Li  Li15580  1  0.748260  0.740981  0.521339  1
  Li  Li15581  1  0.240981  0.751740  0.478661  1
  Li  Li15582  1  0.251740  0.259019  0.521339  1
  Li  Li15583  1  0.759019  0.248260  0.478661  1
  Li  Li15584  1  0.978661  0.248260  0.259019  1
  Li  Li15585  1  0.748260  0.521339  0.740981  1
  Li  Li15586  1  0.021339  0.751740  0.259019  1
  Li  Li15587  1  0.251740  0.478661  0.740981  1
  Li  Li15588  1  0.978661  0.751740  0.740981  1
  Li  Li15589  1  0.251740  0.521339  0.259019  1
  Li  Li15590  1  0.021339  0.248260  0.740981  1
  Li  Li15591  1  0.748260  0.478661  0.259019  1
  Li  Li15592  1  0.759019  0.478661  0.248260  1
  Li  Li15593  1  0.759019  0.521339  0.751740  1
  Li  Li15594  1  0.021339  0.740981  0.248260  1
  Li  Li15595  1  0.240981  0.478661  0.751740  1
  Li  Li15596  1  0.978661  0.259019  0.248260  1
  Li  Li15597  1  0.240981  0.521339  0.248260  1
  Li  Li15598  1  0.021339  0.259019  0.751740  1
  Li  Li15599  1  0.978661  0.740981  0.751740  1
  Li  Li15600  1  0.248260  0.759019  0.478661  1
  Li  Li15601  1  0.259019  0.251740  0.521339  1
  Li  Li15602  1  0.751740  0.240981  0.478661  1
  Li  Li15603  1  0.740981  0.748260  0.521339  1
  Li  Li15604  1  0.248260  0.240981  0.521339  1
  Li  Li15605  1  0.740981  0.251740  0.478661  1
  Li  Li15606  1  0.751740  0.759019  0.521339  1
  Li  Li15607  1  0.259019  0.748260  0.478661  1
  Li  Li15608  1  0.478661  0.748260  0.259019  1
  Li  Li15609  1  0.248260  0.021339  0.740981  1
  Li  Li15610  1  0.521339  0.251740  0.259019  1
  Li  Li15611  1  0.751740  0.978661  0.740981  1
  Li  Li15612  1  0.478661  0.251740  0.740981  1
  Li  Li15613  1  0.751740  0.021339  0.259019  1
  Li  Li15614  1  0.521339  0.748260  0.740981  1
  Li  Li15615  1  0.248260  0.978661  0.259019  1
  Li  Li15616  1  0.259019  0.978661  0.248260  1
  Li  Li15617  1  0.259019  0.021339  0.751740  1
  Li  Li15618  1  0.521339  0.240981  0.248260  1
  Li  Li15619  1  0.740981  0.978661  0.751740  1
  Li  Li15620  1  0.478661  0.759019  0.248260  1
  Li  Li15621  1  0.740981  0.021339  0.248260  1
  Li  Li15622  1  0.521339  0.759019  0.751740  1
  Li  Li15623  1  0.478661  0.240981  0.751740  1
  Li  Li15624  1  0.248260  0.259019  0.978661  1
  Li  Li15625  1  0.259019  0.751740  0.021339  1
  Li  Li15626  1  0.751740  0.740981  0.978661  1
  Li  Li15627  1  0.740981  0.248260  0.021339  1
  Li  Li15628  1  0.248260  0.740981  0.021339  1
  Li  Li15629  1  0.740981  0.751740  0.978661  1
  Li  Li15630  1  0.751740  0.259019  0.021339  1
  Li  Li15631  1  0.259019  0.248260  0.978661  1
  Li  Li15632  1  0.478661  0.248260  0.759019  1
  Li  Li15633  1  0.248260  0.521339  0.240981  1
  Li  Li15634  1  0.521339  0.751740  0.759019  1
  Li  Li15635  1  0.751740  0.478661  0.240981  1
  Li  Li15636  1  0.478661  0.751740  0.240981  1
  Li  Li15637  1  0.751740  0.521339  0.759019  1
  Li  Li15638  1  0.521339  0.248260  0.240981  1
  Li  Li15639  1  0.248260  0.478661  0.759019  1
  Li  Li15640  1  0.259019  0.478661  0.748260  1
  Li  Li15641  1  0.259019  0.521339  0.251740  1
  Li  Li15642  1  0.521339  0.740981  0.748260  1
  Li  Li15643  1  0.740981  0.478661  0.251740  1
  Li  Li15644  1  0.478661  0.259019  0.748260  1
  Li  Li15645  1  0.740981  0.521339  0.748260  1
  Li  Li15646  1  0.521339  0.259019  0.251740  1
  Li  Li15647  1  0.478661  0.740981  0.251740  1
  Li  Li15648  1  0.796381  0.678005  0.538104  1
  Li  Li15649  1  0.678005  0.203619  0.461896  1
  Li  Li15650  1  0.203619  0.321995  0.538104  1
  Li  Li15651  1  0.321995  0.796381  0.461896  1
  Li  Li15652  1  0.796381  0.321995  0.461896  1
  Li  Li15653  1  0.321995  0.203619  0.538104  1
  Li  Li15654  1  0.203619  0.678005  0.461896  1
  Li  Li15655  1  0.678005  0.796381  0.538104  1
  Li  Li15656  1  0.538104  0.796381  0.678005  1
  Li  Li15657  1  0.796381  0.461896  0.321995  1
  Li  Li15658  1  0.461896  0.203619  0.678005  1
  Li  Li15659  1  0.203619  0.538104  0.321995  1
  Li  Li15660  1  0.538104  0.203619  0.321995  1
  Li  Li15661  1  0.203619  0.461896  0.678005  1
  Li  Li15662  1  0.461896  0.796381  0.321995  1
  Li  Li15663  1  0.796381  0.538104  0.678005  1
  Li  Li15664  1  0.678005  0.538104  0.796381  1
  Li  Li15665  1  0.678005  0.461896  0.203619  1
  Li  Li15666  1  0.461896  0.321995  0.796381  1
  Li  Li15667  1  0.321995  0.538104  0.203619  1
  Li  Li15668  1  0.538104  0.678005  0.796381  1
  Li  Li15669  1  0.321995  0.461896  0.796381  1
  Li  Li15670  1  0.461896  0.678005  0.203619  1
  Li  Li15671  1  0.538104  0.321995  0.203619  1
  Li  Li15672  1  0.796381  0.178005  0.038104  1
  Li  Li15673  1  0.678005  0.703619  0.961896  1
  Li  Li15674  1  0.203619  0.821995  0.038104  1
  Li  Li15675  1  0.321995  0.296381  0.961896  1
  Li  Li15676  1  0.796381  0.821995  0.961896  1
  Li  Li15677  1  0.321995  0.703619  0.038104  1
  Li  Li15678  1  0.203619  0.178005  0.961896  1
  Li  Li15679  1  0.678005  0.296381  0.038104  1
  Li  Li15680  1  0.538104  0.296381  0.178005  1
  Li  Li15681  1  0.796381  0.961896  0.821995  1
  Li  Li15682  1  0.461896  0.703619  0.178005  1
  Li  Li15683  1  0.203619  0.038104  0.821995  1
  Li  Li15684  1  0.538104  0.703619  0.821995  1
  Li  Li15685  1  0.203619  0.961896  0.178005  1
  Li  Li15686  1  0.461896  0.296381  0.821995  1
  Li  Li15687  1  0.796381  0.038104  0.178005  1
  Li  Li15688  1  0.678005  0.038104  0.296381  1
  Li  Li15689  1  0.678005  0.961896  0.703619  1
  Li  Li15690  1  0.461896  0.821995  0.296381  1
  Li  Li15691  1  0.321995  0.038104  0.703619  1
  Li  Li15692  1  0.538104  0.178005  0.296381  1
  Li  Li15693  1  0.321995  0.961896  0.296381  1
  Li  Li15694  1  0.461896  0.178005  0.703619  1
  Li  Li15695  1  0.538104  0.821995  0.703619  1
  Li  Li15696  1  0.296381  0.678005  0.038104  1
  Li  Li15697  1  0.178005  0.203619  0.961896  1
  Li  Li15698  1  0.703619  0.321995  0.038104  1
  Li  Li15699  1  0.821995  0.796381  0.961896  1
  Li  Li15700  1  0.296381  0.321995  0.961896  1
  Li  Li15701  1  0.821995  0.203619  0.038104  1
  Li  Li15702  1  0.703619  0.678005  0.961896  1
  Li  Li15703  1  0.178005  0.796381  0.038104  1
  Li  Li15704  1  0.038104  0.796381  0.178005  1
  Li  Li15705  1  0.296381  0.461896  0.821995  1
  Li  Li15706  1  0.961896  0.203619  0.178005  1
  Li  Li15707  1  0.703619  0.538104  0.821995  1
  Li  Li15708  1  0.038104  0.203619  0.821995  1
  Li  Li15709  1  0.703619  0.461896  0.178005  1
  Li  Li15710  1  0.961896  0.796381  0.821995  1
  Li  Li15711  1  0.296381  0.538104  0.178005  1
  Li  Li15712  1  0.178005  0.538104  0.296381  1
  Li  Li15713  1  0.178005  0.461896  0.703619  1
  Li  Li15714  1  0.961896  0.321995  0.296381  1
  Li  Li15715  1  0.821995  0.538104  0.703619  1
  Li  Li15716  1  0.038104  0.678005  0.296381  1
  Li  Li15717  1  0.821995  0.461896  0.296381  1
  Li  Li15718  1  0.961896  0.678005  0.703619  1
  Li  Li15719  1  0.038104  0.321995  0.703619  1
  Li  Li15720  1  0.296381  0.178005  0.538104  1
  Li  Li15721  1  0.178005  0.703619  0.461896  1
  Li  Li15722  1  0.703619  0.821995  0.538104  1
  Li  Li15723  1  0.821995  0.296381  0.461896  1
  Li  Li15724  1  0.296381  0.821995  0.461896  1
  Li  Li15725  1  0.821995  0.703619  0.538104  1
  Li  Li15726  1  0.703619  0.178005  0.461896  1
  Li  Li15727  1  0.178005  0.296381  0.538104  1
  Li  Li15728  1  0.038104  0.296381  0.678005  1
  Li  Li15729  1  0.296381  0.961896  0.321995  1
  Li  Li15730  1  0.961896  0.703619  0.678005  1
  Li  Li15731  1  0.703619  0.038104  0.321995  1
  Li  Li15732  1  0.038104  0.703619  0.321995  1
  Li  Li15733  1  0.703619  0.961896  0.678005  1
  Li  Li15734  1  0.961896  0.296381  0.321995  1
  Li  Li15735  1  0.296381  0.038104  0.678005  1
  Li  Li15736  1  0.178005  0.038104  0.796381  1
  Li  Li15737  1  0.178005  0.961896  0.203619  1
  Li  Li15738  1  0.961896  0.821995  0.796381  1
  Li  Li15739  1  0.821995  0.038104  0.203619  1
  Li  Li15740  1  0.038104  0.178005  0.796381  1
  Li  Li15741  1  0.821995  0.961896  0.796381  1
  Li  Li15742  1  0.961896  0.178005  0.203619  1
  Li  Li15743  1  0.038104  0.821995  0.203619  1
  Li  Li15744  1  0.970395  0.702517  0.683443  1
  Li  Li15745  1  0.702517  0.029605  0.316557  1
  Li  Li15746  1  0.029605  0.297483  0.683443  1
  Li  Li15747  1  0.297483  0.970395  0.316557  1
  Li  Li15748  1  0.970395  0.297483  0.316557  1
  Li  Li15749  1  0.297483  0.029605  0.683443  1
  Li  Li15750  1  0.029605  0.702517  0.316557  1
  Li  Li15751  1  0.702517  0.970395  0.683443  1
  Li  Li15752  1  0.683443  0.970395  0.702517  1
  Li  Li15753  1  0.970395  0.316557  0.297483  1
  Li  Li15754  1  0.316557  0.029605  0.702517  1
  Li  Li15755  1  0.029605  0.683443  0.297483  1
  Li  Li15756  1  0.683443  0.029605  0.297483  1
  Li  Li15757  1  0.029605  0.316557  0.702517  1
  Li  Li15758  1  0.316557  0.970395  0.297483  1
  Li  Li15759  1  0.970395  0.683443  0.702517  1
  Li  Li15760  1  0.702517  0.683443  0.970395  1
  Li  Li15761  1  0.702517  0.316557  0.029605  1
  Li  Li15762  1  0.316557  0.297483  0.970395  1
  Li  Li15763  1  0.297483  0.683443  0.029605  1
  Li  Li15764  1  0.683443  0.702517  0.970395  1
  Li  Li15765  1  0.297483  0.316557  0.970395  1
  Li  Li15766  1  0.316557  0.702517  0.029605  1
  Li  Li15767  1  0.683443  0.297483  0.029605  1
  Li  Li15768  1  0.970395  0.202517  0.183443  1
  Li  Li15769  1  0.702517  0.529605  0.816557  1
  Li  Li15770  1  0.029605  0.797483  0.183443  1
  Li  Li15771  1  0.297483  0.470395  0.816557  1
  Li  Li15772  1  0.970395  0.797483  0.816557  1
  Li  Li15773  1  0.297483  0.529605  0.183443  1
  Li  Li15774  1  0.029605  0.202517  0.816557  1
  Li  Li15775  1  0.702517  0.470395  0.183443  1
  Li  Li15776  1  0.683443  0.470395  0.202517  1
  Li  Li15777  1  0.970395  0.816557  0.797483  1
  Li  Li15778  1  0.316557  0.529605  0.202517  1
  Li  Li15779  1  0.029605  0.183443  0.797483  1
  Li  Li15780  1  0.683443  0.529605  0.797483  1
  Li  Li15781  1  0.029605  0.816557  0.202517  1
  Li  Li15782  1  0.316557  0.470395  0.797483  1
  Li  Li15783  1  0.970395  0.183443  0.202517  1
  Li  Li15784  1  0.702517  0.183443  0.470395  1
  Li  Li15785  1  0.702517  0.816557  0.529605  1
  Li  Li15786  1  0.316557  0.797483  0.470395  1
  Li  Li15787  1  0.297483  0.183443  0.529605  1
  Li  Li15788  1  0.683443  0.202517  0.470395  1
  Li  Li15789  1  0.297483  0.816557  0.470395  1
  Li  Li15790  1  0.316557  0.202517  0.529605  1
  Li  Li15791  1  0.683443  0.797483  0.529605  1
  Li  Li15792  1  0.470395  0.702517  0.183443  1
  Li  Li15793  1  0.202517  0.029605  0.816557  1
  Li  Li15794  1  0.529605  0.297483  0.183443  1
  Li  Li15795  1  0.797483  0.970395  0.816557  1
  Li  Li15796  1  0.470395  0.297483  0.816557  1
  Li  Li15797  1  0.797483  0.029605  0.183443  1
  Li  Li15798  1  0.529605  0.702517  0.816557  1
  Li  Li15799  1  0.202517  0.970395  0.183443  1
  Li  Li15800  1  0.183443  0.970395  0.202517  1
  Li  Li15801  1  0.470395  0.316557  0.797483  1
  Li  Li15802  1  0.816557  0.029605  0.202517  1
  Li  Li15803  1  0.529605  0.683443  0.797483  1
  Li  Li15804  1  0.183443  0.029605  0.797483  1
  Li  Li15805  1  0.529605  0.316557  0.202517  1
  Li  Li15806  1  0.816557  0.970395  0.797483  1
  Li  Li15807  1  0.470395  0.683443  0.202517  1
  Li  Li15808  1  0.202517  0.683443  0.470395  1
  Li  Li15809  1  0.202517  0.316557  0.529605  1
  Li  Li15810  1  0.816557  0.297483  0.470395  1
  Li  Li15811  1  0.797483  0.683443  0.529605  1
  Li  Li15812  1  0.183443  0.702517  0.470395  1
  Li  Li15813  1  0.797483  0.316557  0.470395  1
  Li  Li15814  1  0.816557  0.702517  0.529605  1
  Li  Li15815  1  0.183443  0.297483  0.529605  1
  Li  Li15816  1  0.470395  0.202517  0.683443  1
  Li  Li15817  1  0.202517  0.529605  0.316557  1
  Li  Li15818  1  0.529605  0.797483  0.683443  1
  Li  Li15819  1  0.797483  0.470395  0.316557  1
  Li  Li15820  1  0.470395  0.797483  0.316557  1
  Li  Li15821  1  0.797483  0.529605  0.683443  1
  Li  Li15822  1  0.529605  0.202517  0.316557  1
  Li  Li15823  1  0.202517  0.470395  0.683443  1
  Li  Li15824  1  0.183443  0.470395  0.702517  1
  Li  Li15825  1  0.470395  0.816557  0.297483  1
  Li  Li15826  1  0.816557  0.529605  0.702517  1
  Li  Li15827  1  0.529605  0.183443  0.297483  1
  Li  Li15828  1  0.183443  0.529605  0.297483  1
  Li  Li15829  1  0.529605  0.816557  0.702517  1
  Li  Li15830  1  0.816557  0.470395  0.297483  1
  Li  Li15831  1  0.470395  0.183443  0.702517  1
  Li  Li15832  1  0.202517  0.183443  0.970395  1
  Li  Li15833  1  0.202517  0.816557  0.029605  1
  Li  Li15834  1  0.816557  0.797483  0.970395  1
  Li  Li15835  1  0.797483  0.183443  0.029605  1
  Li  Li15836  1  0.183443  0.202517  0.970395  1
  Li  Li15837  1  0.797483  0.816557  0.970395  1
  Li  Li15838  1  0.816557  0.202517  0.029605  1
  Li  Li15839  1  0.183443  0.797483  0.029605  1
  Li  Li15840  1  0.817067  0.691758  0.525719  1
  Li  Li15841  1  0.691758  0.182933  0.474281  1
  Li  Li15842  1  0.182933  0.308242  0.525719  1
  Li  Li15843  1  0.308242  0.817067  0.474281  1
  Li  Li15844  1  0.817067  0.308242  0.474281  1
  Li  Li15845  1  0.308242  0.182933  0.525719  1
  Li  Li15846  1  0.182933  0.691758  0.474281  1
  Li  Li15847  1  0.691758  0.817067  0.525719  1
  Li  Li15848  1  0.525719  0.817067  0.691758  1
  Li  Li15849  1  0.817067  0.474281  0.308242  1
  Li  Li15850  1  0.474281  0.182933  0.691758  1
  Li  Li15851  1  0.182933  0.525719  0.308242  1
  Li  Li15852  1  0.525719  0.182933  0.308242  1
  Li  Li15853  1  0.182933  0.474281  0.691758  1
  Li  Li15854  1  0.474281  0.817067  0.308242  1
  Li  Li15855  1  0.817067  0.525719  0.691758  1
  Li  Li15856  1  0.691758  0.525719  0.817067  1
  Li  Li15857  1  0.691758  0.474281  0.182933  1
  Li  Li15858  1  0.474281  0.308242  0.817067  1
  Li  Li15859  1  0.308242  0.525719  0.182933  1
  Li  Li15860  1  0.525719  0.691758  0.817067  1
  Li  Li15861  1  0.308242  0.474281  0.817067  1
  Li  Li15862  1  0.474281  0.691758  0.182933  1
  Li  Li15863  1  0.525719  0.308242  0.182933  1
  Li  Li15864  1  0.817067  0.191758  0.025719  1
  Li  Li15865  1  0.691758  0.682933  0.974281  1
  Li  Li15866  1  0.182933  0.808242  0.025719  1
  Li  Li15867  1  0.308242  0.317067  0.974281  1
  Li  Li15868  1  0.817067  0.808242  0.974281  1
  Li  Li15869  1  0.308242  0.682933  0.025719  1
  Li  Li15870  1  0.182933  0.191758  0.974281  1
  Li  Li15871  1  0.691758  0.317067  0.025719  1
  Li  Li15872  1  0.525719  0.317067  0.191758  1
  Li  Li15873  1  0.817067  0.974281  0.808242  1
  Li  Li15874  1  0.474281  0.682933  0.191758  1
  Li  Li15875  1  0.182933  0.025719  0.808242  1
  Li  Li15876  1  0.525719  0.682933  0.808242  1
  Li  Li15877  1  0.182933  0.974281  0.191758  1
  Li  Li15878  1  0.474281  0.317067  0.808242  1
  Li  Li15879  1  0.817067  0.025719  0.191758  1
  Li  Li15880  1  0.691758  0.025719  0.317067  1
  Li  Li15881  1  0.691758  0.974281  0.682933  1
  Li  Li15882  1  0.474281  0.808242  0.317067  1
  Li  Li15883  1  0.308242  0.025719  0.682933  1
  Li  Li15884  1  0.525719  0.191758  0.317067  1
  Li  Li15885  1  0.308242  0.974281  0.317067  1
  Li  Li15886  1  0.474281  0.191758  0.682933  1
  Li  Li15887  1  0.525719  0.808242  0.682933  1
  Li  Li15888  1  0.317067  0.691758  0.025719  1
  Li  Li15889  1  0.191758  0.182933  0.974281  1
  Li  Li15890  1  0.682933  0.308242  0.025719  1
  Li  Li15891  1  0.808242  0.817067  0.974281  1
  Li  Li15892  1  0.317067  0.308242  0.974281  1
  Li  Li15893  1  0.808242  0.182933  0.025719  1
  Li  Li15894  1  0.682933  0.691758  0.974281  1
  Li  Li15895  1  0.191758  0.817067  0.025719  1
  Li  Li15896  1  0.025719  0.817067  0.191758  1
  Li  Li15897  1  0.317067  0.474281  0.808242  1
  Li  Li15898  1  0.974281  0.182933  0.191758  1
  Li  Li15899  1  0.682933  0.525719  0.808242  1
  Li  Li15900  1  0.025719  0.182933  0.808242  1
  Li  Li15901  1  0.682933  0.474281  0.191758  1
  Li  Li15902  1  0.974281  0.817067  0.808242  1
  Li  Li15903  1  0.317067  0.525719  0.191758  1
  Li  Li15904  1  0.191758  0.525719  0.317067  1
  Li  Li15905  1  0.191758  0.474281  0.682933  1
  Li  Li15906  1  0.974281  0.308242  0.317067  1
  Li  Li15907  1  0.808242  0.525719  0.682933  1
  Li  Li15908  1  0.025719  0.691758  0.317067  1
  Li  Li15909  1  0.808242  0.474281  0.317067  1
  Li  Li15910  1  0.974281  0.691758  0.682933  1
  Li  Li15911  1  0.025719  0.308242  0.682933  1
  Li  Li15912  1  0.317067  0.191758  0.525719  1
  Li  Li15913  1  0.191758  0.682933  0.474281  1
  Li  Li15914  1  0.682933  0.808242  0.525719  1
  Li  Li15915  1  0.808242  0.317067  0.474281  1
  Li  Li15916  1  0.317067  0.808242  0.474281  1
  Li  Li15917  1  0.808242  0.682933  0.525719  1
  Li  Li15918  1  0.682933  0.191758  0.474281  1
  Li  Li15919  1  0.191758  0.317067  0.525719  1
  Li  Li15920  1  0.025719  0.317067  0.691758  1
  Li  Li15921  1  0.317067  0.974281  0.308242  1
  Li  Li15922  1  0.974281  0.682933  0.691758  1
  Li  Li15923  1  0.682933  0.025719  0.308242  1
  Li  Li15924  1  0.025719  0.682933  0.308242  1
  Li  Li15925  1  0.682933  0.974281  0.691758  1
  Li  Li15926  1  0.974281  0.317067  0.308242  1
  Li  Li15927  1  0.317067  0.025719  0.691758  1
  Li  Li15928  1  0.191758  0.025719  0.817067  1
  Li  Li15929  1  0.191758  0.974281  0.182933  1
  Li  Li15930  1  0.974281  0.808242  0.817067  1
  Li  Li15931  1  0.808242  0.025719  0.182933  1
  Li  Li15932  1  0.025719  0.191758  0.817067  1
  Li  Li15933  1  0.808242  0.974281  0.817067  1
  Li  Li15934  1  0.974281  0.191758  0.182933  1
  Li  Li15935  1  0.025719  0.808242  0.182933  1
  Li  Li15936  1  0.773921  0.799144  0.975282  1
  Li  Li15937  1  0.799144  0.226079  0.024718  1
  Li  Li15938  1  0.226079  0.200856  0.975282  1
  Li  Li15939  1  0.200856  0.773921  0.024718  1
  Li  Li15940  1  0.773921  0.200856  0.024718  1
  Li  Li15941  1  0.200856  0.226079  0.975282  1
  Li  Li15942  1  0.226079  0.799144  0.024718  1
  Li  Li15943  1  0.799144  0.773921  0.975282  1
  Li  Li15944  1  0.975282  0.773921  0.799144  1
  Li  Li15945  1  0.773921  0.024718  0.200856  1
  Li  Li15946  1  0.024718  0.226079  0.799144  1
  Li  Li15947  1  0.226079  0.975282  0.200856  1
  Li  Li15948  1  0.975282  0.226079  0.200856  1
  Li  Li15949  1  0.226079  0.024718  0.799144  1
  Li  Li15950  1  0.024718  0.773921  0.200856  1
  Li  Li15951  1  0.773921  0.975282  0.799144  1
  Li  Li15952  1  0.799144  0.975282  0.773921  1
  Li  Li15953  1  0.799144  0.024718  0.226079  1
  Li  Li15954  1  0.024718  0.200856  0.773921  1
  Li  Li15955  1  0.200856  0.975282  0.226079  1
  Li  Li15956  1  0.975282  0.799144  0.773921  1
  Li  Li15957  1  0.200856  0.024718  0.773921  1
  Li  Li15958  1  0.024718  0.799144  0.226079  1
  Li  Li15959  1  0.975282  0.200856  0.226079  1
  Li  Li15960  1  0.773921  0.299144  0.475282  1
  Li  Li15961  1  0.799144  0.726079  0.524718  1
  Li  Li15962  1  0.226079  0.700856  0.475282  1
  Li  Li15963  1  0.200856  0.273921  0.524718  1
  Li  Li15964  1  0.773921  0.700856  0.524718  1
  Li  Li15965  1  0.200856  0.726079  0.475282  1
  Li  Li15966  1  0.226079  0.299144  0.524718  1
  Li  Li15967  1  0.799144  0.273921  0.475282  1
  Li  Li15968  1  0.975282  0.273921  0.299144  1
  Li  Li15969  1  0.773921  0.524718  0.700856  1
  Li  Li15970  1  0.024718  0.726079  0.299144  1
  Li  Li15971  1  0.226079  0.475282  0.700856  1
  Li  Li15972  1  0.975282  0.726079  0.700856  1
  Li  Li15973  1  0.226079  0.524718  0.299144  1
  Li  Li15974  1  0.024718  0.273921  0.700856  1
  Li  Li15975  1  0.773921  0.475282  0.299144  1
  Li  Li15976  1  0.799144  0.475282  0.273921  1
  Li  Li15977  1  0.799144  0.524718  0.726079  1
  Li  Li15978  1  0.024718  0.700856  0.273921  1
  Li  Li15979  1  0.200856  0.475282  0.726079  1
  Li  Li15980  1  0.975282  0.299144  0.273921  1
  Li  Li15981  1  0.200856  0.524718  0.273921  1
  Li  Li15982  1  0.024718  0.299144  0.726079  1
  Li  Li15983  1  0.975282  0.700856  0.726079  1
  Li  Li15984  1  0.273921  0.799144  0.475282  1
  Li  Li15985  1  0.299144  0.226079  0.524718  1
  Li  Li15986  1  0.726079  0.200856  0.475282  1
  Li  Li15987  1  0.700856  0.773921  0.524718  1
  Li  Li15988  1  0.273921  0.200856  0.524718  1
  Li  Li15989  1  0.700856  0.226079  0.475282  1
  Li  Li15990  1  0.726079  0.799144  0.524718  1
  Li  Li15991  1  0.299144  0.773921  0.475282  1
  Li  Li15992  1  0.475282  0.773921  0.299144  1
  Li  Li15993  1  0.273921  0.024718  0.700856  1
  Li  Li15994  1  0.524718  0.226079  0.299144  1
  Li  Li15995  1  0.726079  0.975282  0.700856  1
  Li  Li15996  1  0.475282  0.226079  0.700856  1
  Li  Li15997  1  0.726079  0.024718  0.299144  1
  Li  Li15998  1  0.524718  0.773921  0.700856  1
  Li  Li15999  1  0.273921  0.975282  0.299144  1
  Li  Li16000  1  0.299144  0.975282  0.273921  1
  Li  Li16001  1  0.299144  0.024718  0.726079  1
  Li  Li16002  1  0.524718  0.200856  0.273921  1
  Li  Li16003  1  0.700856  0.975282  0.726079  1
  Li  Li16004  1  0.475282  0.799144  0.273921  1
  Li  Li16005  1  0.700856  0.024718  0.273921  1
  Li  Li16006  1  0.524718  0.799144  0.726079  1
  Li  Li16007  1  0.475282  0.200856  0.726079  1
  Li  Li16008  1  0.273921  0.299144  0.975282  1
  Li  Li16009  1  0.299144  0.726079  0.024718  1
  Li  Li16010  1  0.726079  0.700856  0.975282  1
  Li  Li16011  1  0.700856  0.273921  0.024718  1
  Li  Li16012  1  0.273921  0.700856  0.024718  1
  Li  Li16013  1  0.700856  0.726079  0.975282  1
  Li  Li16014  1  0.726079  0.299144  0.024718  1
  Li  Li16015  1  0.299144  0.273921  0.975282  1
  Li  Li16016  1  0.475282  0.273921  0.799144  1
  Li  Li16017  1  0.273921  0.524718  0.200856  1
  Li  Li16018  1  0.524718  0.726079  0.799144  1
  Li  Li16019  1  0.726079  0.475282  0.200856  1
  Li  Li16020  1  0.475282  0.726079  0.200856  1
  Li  Li16021  1  0.726079  0.524718  0.799144  1
  Li  Li16022  1  0.524718  0.273921  0.200856  1
  Li  Li16023  1  0.273921  0.475282  0.799144  1
  Li  Li16024  1  0.299144  0.475282  0.773921  1
  Li  Li16025  1  0.299144  0.524718  0.226079  1
  Li  Li16026  1  0.524718  0.700856  0.773921  1
  Li  Li16027  1  0.700856  0.475282  0.226079  1
  Li  Li16028  1  0.475282  0.299144  0.773921  1
  Li  Li16029  1  0.700856  0.524718  0.773921  1
  Li  Li16030  1  0.524718  0.299144  0.226079  1
  Li  Li16031  1  0.475282  0.700856  0.226079  1
  Li  Li16032  1  0.719271  0.590218  0.916135  1
  Li  Li16033  1  0.590218  0.280729  0.083865  1
  Li  Li16034  1  0.280729  0.409782  0.916135  1
  Li  Li16035  1  0.409782  0.719271  0.083865  1
  Li  Li16036  1  0.719271  0.409782  0.083865  1
  Li  Li16037  1  0.409782  0.280729  0.916135  1
  Li  Li16038  1  0.280729  0.590218  0.083865  1
  Li  Li16039  1  0.590218  0.719271  0.916135  1
  Li  Li16040  1  0.916135  0.719271  0.590218  1
  Li  Li16041  1  0.719271  0.083865  0.409782  1
  Li  Li16042  1  0.083865  0.280729  0.590218  1
  Li  Li16043  1  0.280729  0.916135  0.409782  1
  Li  Li16044  1  0.916135  0.280729  0.409782  1
  Li  Li16045  1  0.280729  0.083865  0.590218  1
  Li  Li16046  1  0.083865  0.719271  0.409782  1
  Li  Li16047  1  0.719271  0.916135  0.590218  1
  Li  Li16048  1  0.590218  0.916135  0.719271  1
  Li  Li16049  1  0.590218  0.083865  0.280729  1
  Li  Li16050  1  0.083865  0.409782  0.719271  1
  Li  Li16051  1  0.409782  0.916135  0.280729  1
  Li  Li16052  1  0.916135  0.590218  0.719271  1
  Li  Li16053  1  0.409782  0.083865  0.719271  1
  Li  Li16054  1  0.083865  0.590218  0.280729  1
  Li  Li16055  1  0.916135  0.409782  0.280729  1
  Li  Li16056  1  0.719271  0.090218  0.416135  1
  Li  Li16057  1  0.590218  0.780729  0.583865  1
  Li  Li16058  1  0.280729  0.909782  0.416135  1
  Li  Li16059  1  0.409782  0.219271  0.583865  1
  Li  Li16060  1  0.719271  0.909782  0.583865  1
  Li  Li16061  1  0.409782  0.780729  0.416135  1
  Li  Li16062  1  0.280729  0.090218  0.583865  1
  Li  Li16063  1  0.590218  0.219271  0.416135  1
  Li  Li16064  1  0.916135  0.219271  0.090218  1
  Li  Li16065  1  0.719271  0.583865  0.909782  1
  Li  Li16066  1  0.083865  0.780729  0.090218  1
  Li  Li16067  1  0.280729  0.416135  0.909782  1
  Li  Li16068  1  0.916135  0.780729  0.909782  1
  Li  Li16069  1  0.280729  0.583865  0.090218  1
  Li  Li16070  1  0.083865  0.219271  0.909782  1
  Li  Li16071  1  0.719271  0.416135  0.090218  1
  Li  Li16072  1  0.590218  0.416135  0.219271  1
  Li  Li16073  1  0.590218  0.583865  0.780729  1
  Li  Li16074  1  0.083865  0.909782  0.219271  1
  Li  Li16075  1  0.409782  0.416135  0.780729  1
  Li  Li16076  1  0.916135  0.090218  0.219271  1
  Li  Li16077  1  0.409782  0.583865  0.219271  1
  Li  Li16078  1  0.083865  0.090218  0.780729  1
  Li  Li16079  1  0.916135  0.909782  0.780729  1
  Li  Li16080  1  0.219271  0.590218  0.416135  1
  Li  Li16081  1  0.090218  0.280729  0.583865  1
  Li  Li16082  1  0.780729  0.409782  0.416135  1
  Li  Li16083  1  0.909782  0.719271  0.583865  1
  Li  Li16084  1  0.219271  0.409782  0.583865  1
  Li  Li16085  1  0.909782  0.280729  0.416135  1
  Li  Li16086  1  0.780729  0.590218  0.583865  1
  Li  Li16087  1  0.090218  0.719271  0.416135  1
  Li  Li16088  1  0.416135  0.719271  0.090218  1
  Li  Li16089  1  0.219271  0.083865  0.909782  1
  Li  Li16090  1  0.583865  0.280729  0.090218  1
  Li  Li16091  1  0.780729  0.916135  0.909782  1
  Li  Li16092  1  0.416135  0.280729  0.909782  1
  Li  Li16093  1  0.780729  0.083865  0.090218  1
  Li  Li16094  1  0.583865  0.719271  0.909782  1
  Li  Li16095  1  0.219271  0.916135  0.090218  1
  Li  Li16096  1  0.090218  0.916135  0.219271  1
  Li  Li16097  1  0.090218  0.083865  0.780729  1
  Li  Li16098  1  0.583865  0.409782  0.219271  1
  Li  Li16099  1  0.909782  0.916135  0.780729  1
  Li  Li16100  1  0.416135  0.590218  0.219271  1
  Li  Li16101  1  0.909782  0.083865  0.219271  1
  Li  Li16102  1  0.583865  0.590218  0.780729  1
  Li  Li16103  1  0.416135  0.409782  0.780729  1
  Li  Li16104  1  0.219271  0.090218  0.916135  1
  Li  Li16105  1  0.090218  0.780729  0.083865  1
  Li  Li16106  1  0.780729  0.909782  0.916135  1
  Li  Li16107  1  0.909782  0.219271  0.083865  1
  Li  Li16108  1  0.219271  0.909782  0.083865  1
  Li  Li16109  1  0.909782  0.780729  0.916135  1
  Li  Li16110  1  0.780729  0.090218  0.083865  1
  Li  Li16111  1  0.090218  0.219271  0.916135  1
  Li  Li16112  1  0.416135  0.219271  0.590218  1
  Li  Li16113  1  0.219271  0.583865  0.409782  1
  Li  Li16114  1  0.583865  0.780729  0.590218  1
  Li  Li16115  1  0.780729  0.416135  0.409782  1
  Li  Li16116  1  0.416135  0.780729  0.409782  1
  Li  Li16117  1  0.780729  0.583865  0.590218  1
  Li  Li16118  1  0.583865  0.219271  0.409782  1
  Li  Li16119  1  0.219271  0.416135  0.590218  1
  Li  Li16120  1  0.090218  0.416135  0.719271  1
  Li  Li16121  1  0.090218  0.583865  0.280729  1
  Li  Li16122  1  0.583865  0.909782  0.719271  1
  Li  Li16123  1  0.909782  0.416135  0.280729  1
  Li  Li16124  1  0.416135  0.090218  0.719271  1
  Li  Li16125  1  0.909782  0.583865  0.719271  1
  Li  Li16126  1  0.583865  0.090218  0.280729  1
  Li  Li16127  1  0.416135  0.909782  0.280729  1
  Li  Li16128  1  0.746991  0.976253  0.751729  1
  Li  Li16129  1  0.976253  0.253009  0.248271  1
  Li  Li16130  1  0.253009  0.023747  0.751729  1
  Li  Li16131  1  0.023747  0.746991  0.248271  1
  Li  Li16132  1  0.746991  0.023747  0.248271  1
  Li  Li16133  1  0.023747  0.253009  0.751729  1
  Li  Li16134  1  0.253009  0.976253  0.248271  1
  Li  Li16135  1  0.976253  0.746991  0.751729  1
  Li  Li16136  1  0.751729  0.746991  0.976253  1
  Li  Li16137  1  0.746991  0.248271  0.023747  1
  Li  Li16138  1  0.248271  0.253009  0.976253  1
  Li  Li16139  1  0.253009  0.751729  0.023747  1
  Li  Li16140  1  0.751729  0.253009  0.023747  1
  Li  Li16141  1  0.253009  0.248271  0.976253  1
  Li  Li16142  1  0.248271  0.746991  0.023747  1
  Li  Li16143  1  0.746991  0.751729  0.976253  1
  Li  Li16144  1  0.976253  0.751729  0.746991  1
  Li  Li16145  1  0.976253  0.248271  0.253009  1
  Li  Li16146  1  0.248271  0.023747  0.746991  1
  Li  Li16147  1  0.023747  0.751729  0.253009  1
  Li  Li16148  1  0.751729  0.976253  0.746991  1
  Li  Li16149  1  0.023747  0.248271  0.746991  1
  Li  Li16150  1  0.248271  0.976253  0.253009  1
  Li  Li16151  1  0.751729  0.023747  0.253009  1
  Li  Li16152  1  0.746991  0.476253  0.251729  1
  Li  Li16153  1  0.976253  0.753009  0.748271  1
  Li  Li16154  1  0.253009  0.523747  0.251729  1
  Li  Li16155  1  0.023747  0.246991  0.748271  1
  Li  Li16156  1  0.746991  0.523747  0.748271  1
  Li  Li16157  1  0.023747  0.753009  0.251729  1
  Li  Li16158  1  0.253009  0.476253  0.748271  1
  Li  Li16159  1  0.976253  0.246991  0.251729  1
  Li  Li16160  1  0.751729  0.246991  0.476253  1
  Li  Li16161  1  0.746991  0.748271  0.523747  1
  Li  Li16162  1  0.248271  0.753009  0.476253  1
  Li  Li16163  1  0.253009  0.251729  0.523747  1
  Li  Li16164  1  0.751729  0.753009  0.523747  1
  Li  Li16165  1  0.253009  0.748271  0.476253  1
  Li  Li16166  1  0.248271  0.246991  0.523747  1
  Li  Li16167  1  0.746991  0.251729  0.476253  1
  Li  Li16168  1  0.976253  0.251729  0.246991  1
  Li  Li16169  1  0.976253  0.748271  0.753009  1
  Li  Li16170  1  0.248271  0.523747  0.246991  1
  Li  Li16171  1  0.023747  0.251729  0.753009  1
  Li  Li16172  1  0.751729  0.476253  0.246991  1
  Li  Li16173  1  0.023747  0.748271  0.246991  1
  Li  Li16174  1  0.248271  0.476253  0.753009  1
  Li  Li16175  1  0.751729  0.523747  0.753009  1
  Li  Li16176  1  0.246991  0.976253  0.251729  1
  Li  Li16177  1  0.476253  0.253009  0.748271  1
  Li  Li16178  1  0.753009  0.023747  0.251729  1
  Li  Li16179  1  0.523747  0.746991  0.748271  1
  Li  Li16180  1  0.246991  0.023747  0.748271  1
  Li  Li16181  1  0.523747  0.253009  0.251729  1
  Li  Li16182  1  0.753009  0.976253  0.748271  1
  Li  Li16183  1  0.476253  0.746991  0.251729  1
  Li  Li16184  1  0.251729  0.746991  0.476253  1
  Li  Li16185  1  0.246991  0.248271  0.523747  1
  Li  Li16186  1  0.748271  0.253009  0.476253  1
  Li  Li16187  1  0.753009  0.751729  0.523747  1
  Li  Li16188  1  0.251729  0.253009  0.523747  1
  Li  Li16189  1  0.753009  0.248271  0.476253  1
  Li  Li16190  1  0.748271  0.746991  0.523747  1
  Li  Li16191  1  0.246991  0.751729  0.476253  1
  Li  Li16192  1  0.476253  0.751729  0.246991  1
  Li  Li16193  1  0.476253  0.248271  0.753009  1
  Li  Li16194  1  0.748271  0.023747  0.246991  1
  Li  Li16195  1  0.523747  0.751729  0.753009  1
  Li  Li16196  1  0.251729  0.976253  0.246991  1
  Li  Li16197  1  0.523747  0.248271  0.246991  1
  Li  Li16198  1  0.748271  0.976253  0.753009  1
  Li  Li16199  1  0.251729  0.023747  0.753009  1
  Li  Li16200  1  0.246991  0.476253  0.751729  1
  Li  Li16201  1  0.476253  0.753009  0.248271  1
  Li  Li16202  1  0.753009  0.523747  0.751729  1
  Li  Li16203  1  0.523747  0.246991  0.248271  1
  Li  Li16204  1  0.246991  0.523747  0.248271  1
  Li  Li16205  1  0.523747  0.753009  0.751729  1
  Li  Li16206  1  0.753009  0.476253  0.248271  1
  Li  Li16207  1  0.476253  0.246991  0.751729  1
  Li  Li16208  1  0.251729  0.246991  0.976253  1
  Li  Li16209  1  0.246991  0.748271  0.023747  1
  Li  Li16210  1  0.748271  0.753009  0.976253  1
  Li  Li16211  1  0.753009  0.251729  0.023747  1
  Li  Li16212  1  0.251729  0.753009  0.023747  1
  Li  Li16213  1  0.753009  0.748271  0.976253  1
  Li  Li16214  1  0.748271  0.246991  0.023747  1
  Li  Li16215  1  0.246991  0.251729  0.976253  1
  Li  Li16216  1  0.476253  0.251729  0.746991  1
  Li  Li16217  1  0.476253  0.748271  0.253009  1
  Li  Li16218  1  0.748271  0.523747  0.746991  1
  Li  Li16219  1  0.523747  0.251729  0.253009  1
  Li  Li16220  1  0.251729  0.476253  0.746991  1
  Li  Li16221  1  0.523747  0.748271  0.746991  1
  Li  Li16222  1  0.748271  0.476253  0.253009  1
  Li  Li16223  1  0.251729  0.523747  0.253009  1
  Li  Li16224  1  0.698829  0.703071  0.992051  1
  Li  Li16225  1  0.703071  0.301171  0.007949  1
  Li  Li16226  1  0.301171  0.296929  0.992051  1
  Li  Li16227  1  0.296929  0.698829  0.007949  1
  Li  Li16228  1  0.698829  0.296929  0.007949  1
  Li  Li16229  1  0.296929  0.301171  0.992051  1
  Li  Li16230  1  0.301171  0.703071  0.007949  1
  Li  Li16231  1  0.703071  0.698829  0.992051  1
  Li  Li16232  1  0.992051  0.698829  0.703071  1
  Li  Li16233  1  0.698829  0.007949  0.296929  1
  Li  Li16234  1  0.007949  0.301171  0.703071  1
  Li  Li16235  1  0.301171  0.992051  0.296929  1
  Li  Li16236  1  0.992051  0.301171  0.296929  1
  Li  Li16237  1  0.301171  0.007949  0.703071  1
  Li  Li16238  1  0.007949  0.698829  0.296929  1
  Li  Li16239  1  0.698829  0.992051  0.703071  1
  Li  Li16240  1  0.703071  0.992051  0.698829  1
  Li  Li16241  1  0.703071  0.007949  0.301171  1
  Li  Li16242  1  0.007949  0.296929  0.698829  1
  Li  Li16243  1  0.296929  0.992051  0.301171  1
  Li  Li16244  1  0.992051  0.703071  0.698829  1
  Li  Li16245  1  0.296929  0.007949  0.698829  1
  Li  Li16246  1  0.007949  0.703071  0.301171  1
  Li  Li16247  1  0.992051  0.296929  0.301171  1
  Li  Li16248  1  0.698829  0.203071  0.492051  1
  Li  Li16249  1  0.703071  0.801171  0.507949  1
  Li  Li16250  1  0.301171  0.796929  0.492051  1
  Li  Li16251  1  0.296929  0.198829  0.507949  1
  Li  Li16252  1  0.698829  0.796929  0.507949  1
  Li  Li16253  1  0.296929  0.801171  0.492051  1
  Li  Li16254  1  0.301171  0.203071  0.507949  1
  Li  Li16255  1  0.703071  0.198829  0.492051  1
  Li  Li16256  1  0.992051  0.198829  0.203071  1
  Li  Li16257  1  0.698829  0.507949  0.796929  1
  Li  Li16258  1  0.007949  0.801171  0.203071  1
  Li  Li16259  1  0.301171  0.492051  0.796929  1
  Li  Li16260  1  0.992051  0.801171  0.796929  1
  Li  Li16261  1  0.301171  0.507949  0.203071  1
  Li  Li16262  1  0.007949  0.198829  0.796929  1
  Li  Li16263  1  0.698829  0.492051  0.203071  1
  Li  Li16264  1  0.703071  0.492051  0.198829  1
  Li  Li16265  1  0.703071  0.507949  0.801171  1
  Li  Li16266  1  0.007949  0.796929  0.198829  1
  Li  Li16267  1  0.296929  0.492051  0.801171  1
  Li  Li16268  1  0.992051  0.203071  0.198829  1
  Li  Li16269  1  0.296929  0.507949  0.198829  1
  Li  Li16270  1  0.007949  0.203071  0.801171  1
  Li  Li16271  1  0.992051  0.796929  0.801171  1
  Li  Li16272  1  0.198829  0.703071  0.492051  1
  Li  Li16273  1  0.203071  0.301171  0.507949  1
  Li  Li16274  1  0.801171  0.296929  0.492051  1
  Li  Li16275  1  0.796929  0.698829  0.507949  1
  Li  Li16276  1  0.198829  0.296929  0.507949  1
  Li  Li16277  1  0.796929  0.301171  0.492051  1
  Li  Li16278  1  0.801171  0.703071  0.507949  1
  Li  Li16279  1  0.203071  0.698829  0.492051  1
  Li  Li16280  1  0.492051  0.698829  0.203071  1
  Li  Li16281  1  0.198829  0.007949  0.796929  1
  Li  Li16282  1  0.507949  0.301171  0.203071  1
  Li  Li16283  1  0.801171  0.992051  0.796929  1
  Li  Li16284  1  0.492051  0.301171  0.796929  1
  Li  Li16285  1  0.801171  0.007949  0.203071  1
  Li  Li16286  1  0.507949  0.698829  0.796929  1
  Li  Li16287  1  0.198829  0.992051  0.203071  1
  Li  Li16288  1  0.203071  0.992051  0.198829  1
  Li  Li16289  1  0.203071  0.007949  0.801171  1
  Li  Li16290  1  0.507949  0.296929  0.198829  1
  Li  Li16291  1  0.796929  0.992051  0.801171  1
  Li  Li16292  1  0.492051  0.703071  0.198829  1
  Li  Li16293  1  0.796929  0.007949  0.198829  1
  Li  Li16294  1  0.507949  0.703071  0.801171  1
  Li  Li16295  1  0.492051  0.296929  0.801171  1
  Li  Li16296  1  0.198829  0.203071  0.992051  1
  Li  Li16297  1  0.203071  0.801171  0.007949  1
  Li  Li16298  1  0.801171  0.796929  0.992051  1
  Li  Li16299  1  0.796929  0.198829  0.007949  1
  Li  Li16300  1  0.198829  0.796929  0.007949  1
  Li  Li16301  1  0.796929  0.801171  0.992051  1
  Li  Li16302  1  0.801171  0.203071  0.007949  1
  Li  Li16303  1  0.203071  0.198829  0.992051  1
  Li  Li16304  1  0.492051  0.198829  0.703071  1
  Li  Li16305  1  0.198829  0.507949  0.296929  1
  Li  Li16306  1  0.507949  0.801171  0.703071  1
  Li  Li16307  1  0.801171  0.492051  0.296929  1
  Li  Li16308  1  0.492051  0.801171  0.296929  1
  Li  Li16309  1  0.801171  0.507949  0.703071  1
  Li  Li16310  1  0.507949  0.198829  0.296929  1
  Li  Li16311  1  0.198829  0.492051  0.703071  1
  Li  Li16312  1  0.203071  0.492051  0.698829  1
  Li  Li16313  1  0.203071  0.507949  0.301171  1
  Li  Li16314  1  0.507949  0.796929  0.698829  1
  Li  Li16315  1  0.796929  0.492051  0.301171  1
  Li  Li16316  1  0.492051  0.203071  0.698829  1
  Li  Li16317  1  0.796929  0.507949  0.698829  1
  Li  Li16318  1  0.507949  0.203071  0.301171  1
  Li  Li16319  1  0.492051  0.796929  0.301171  1
  Li  Li16320  1  0.584172  0.911315  0.747016  1
  Li  Li16321  1  0.911315  0.415828  0.252984  1
  Li  Li16322  1  0.415828  0.088685  0.747016  1
  Li  Li16323  1  0.088685  0.584172  0.252984  1
  Li  Li16324  1  0.584172  0.088685  0.252984  1
  Li  Li16325  1  0.088685  0.415828  0.747016  1
  Li  Li16326  1  0.415828  0.911315  0.252984  1
  Li  Li16327  1  0.911315  0.584172  0.747016  1
  Li  Li16328  1  0.747016  0.584172  0.911315  1
  Li  Li16329  1  0.584172  0.252984  0.088685  1
  Li  Li16330  1  0.252984  0.415828  0.911315  1
  Li  Li16331  1  0.415828  0.747016  0.088685  1
  Li  Li16332  1  0.747016  0.415828  0.088685  1
  Li  Li16333  1  0.415828  0.252984  0.911315  1
  Li  Li16334  1  0.252984  0.584172  0.088685  1
  Li  Li16335  1  0.584172  0.747016  0.911315  1
  Li  Li16336  1  0.911315  0.747016  0.584172  1
  Li  Li16337  1  0.911315  0.252984  0.415828  1
  Li  Li16338  1  0.252984  0.088685  0.584172  1
  Li  Li16339  1  0.088685  0.747016  0.415828  1
  Li  Li16340  1  0.747016  0.911315  0.584172  1
  Li  Li16341  1  0.088685  0.252984  0.584172  1
  Li  Li16342  1  0.252984  0.911315  0.415828  1
  Li  Li16343  1  0.747016  0.088685  0.415828  1
  Li  Li16344  1  0.584172  0.411315  0.247016  1
  Li  Li16345  1  0.911315  0.915828  0.752984  1
  Li  Li16346  1  0.415828  0.588685  0.247016  1
  Li  Li16347  1  0.088685  0.084172  0.752984  1
  Li  Li16348  1  0.584172  0.588685  0.752984  1
  Li  Li16349  1  0.088685  0.915828  0.247016  1
  Li  Li16350  1  0.415828  0.411315  0.752984  1
  Li  Li16351  1  0.911315  0.084172  0.247016  1
  Li  Li16352  1  0.747016  0.084172  0.411315  1
  Li  Li16353  1  0.584172  0.752984  0.588685  1
  Li  Li16354  1  0.252984  0.915828  0.411315  1
  Li  Li16355  1  0.415828  0.247016  0.588685  1
  Li  Li16356  1  0.747016  0.915828  0.588685  1
  Li  Li16357  1  0.415828  0.752984  0.411315  1
  Li  Li16358  1  0.252984  0.084172  0.588685  1
  Li  Li16359  1  0.584172  0.247016  0.411315  1
  Li  Li16360  1  0.911315  0.247016  0.084172  1
  Li  Li16361  1  0.911315  0.752984  0.915828  1
  Li  Li16362  1  0.252984  0.588685  0.084172  1
  Li  Li16363  1  0.088685  0.247016  0.915828  1
  Li  Li16364  1  0.747016  0.411315  0.084172  1
  Li  Li16365  1  0.088685  0.752984  0.084172  1
  Li  Li16366  1  0.252984  0.411315  0.915828  1
  Li  Li16367  1  0.747016  0.588685  0.915828  1
  Li  Li16368  1  0.084172  0.911315  0.247016  1
  Li  Li16369  1  0.411315  0.415828  0.752984  1
  Li  Li16370  1  0.915828  0.088685  0.247016  1
  Li  Li16371  1  0.588685  0.584172  0.752984  1
  Li  Li16372  1  0.084172  0.088685  0.752984  1
  Li  Li16373  1  0.588685  0.415828  0.247016  1
  Li  Li16374  1  0.915828  0.911315  0.752984  1
  Li  Li16375  1  0.411315  0.584172  0.247016  1
  Li  Li16376  1  0.247016  0.584172  0.411315  1
  Li  Li16377  1  0.084172  0.252984  0.588685  1
  Li  Li16378  1  0.752984  0.415828  0.411315  1
  Li  Li16379  1  0.915828  0.747016  0.588685  1
  Li  Li16380  1  0.247016  0.415828  0.588685  1
  Li  Li16381  1  0.915828  0.252984  0.411315  1
  Li  Li16382  1  0.752984  0.584172  0.588685  1
  Li  Li16383  1  0.084172  0.747016  0.411315  1
  Li  Li16384  1  0.411315  0.747016  0.084172  1
  Li  Li16385  1  0.411315  0.252984  0.915828  1
  Li  Li16386  1  0.752984  0.088685  0.084172  1
  Li  Li16387  1  0.588685  0.747016  0.915828  1
  Li  Li16388  1  0.247016  0.911315  0.084172  1
  Li  Li16389  1  0.588685  0.252984  0.084172  1
  Li  Li16390  1  0.752984  0.911315  0.915828  1
  Li  Li16391  1  0.247016  0.088685  0.915828  1
  Li  Li16392  1  0.084172  0.411315  0.747016  1
  Li  Li16393  1  0.411315  0.915828  0.252984  1
  Li  Li16394  1  0.915828  0.588685  0.747016  1
  Li  Li16395  1  0.588685  0.084172  0.252984  1
  Li  Li16396  1  0.084172  0.588685  0.252984  1
  Li  Li16397  1  0.588685  0.915828  0.747016  1
  Li  Li16398  1  0.915828  0.411315  0.252984  1
  Li  Li16399  1  0.411315  0.084172  0.747016  1
  Li  Li16400  1  0.247016  0.084172  0.911315  1
  Li  Li16401  1  0.084172  0.752984  0.088685  1
  Li  Li16402  1  0.752984  0.915828  0.911315  1
  Li  Li16403  1  0.915828  0.247016  0.088685  1
  Li  Li16404  1  0.247016  0.915828  0.088685  1
  Li  Li16405  1  0.915828  0.752984  0.911315  1
  Li  Li16406  1  0.752984  0.084172  0.088685  1
  Li  Li16407  1  0.084172  0.247016  0.911315  1
  Li  Li16408  1  0.411315  0.247016  0.584172  1
  Li  Li16409  1  0.411315  0.752984  0.415828  1
  Li  Li16410  1  0.752984  0.588685  0.584172  1
  Li  Li16411  1  0.588685  0.247016  0.415828  1
  Li  Li16412  1  0.247016  0.411315  0.584172  1
  Li  Li16413  1  0.588685  0.752984  0.584172  1
  Li  Li16414  1  0.752984  0.411315  0.415828  1
  Li  Li16415  1  0.247016  0.588685  0.415828  1
  Li  Li16416  1  0.676142  0.530233  0.808402  1
  Li  Li16417  1  0.530233  0.323858  0.191598  1
  Li  Li16418  1  0.323858  0.469767  0.808402  1
  Li  Li16419  1  0.469767  0.676142  0.191598  1
  Li  Li16420  1  0.676142  0.469767  0.191598  1
  Li  Li16421  1  0.469767  0.323858  0.808402  1
  Li  Li16422  1  0.323858  0.530233  0.191598  1
  Li  Li16423  1  0.530233  0.676142  0.808402  1
  Li  Li16424  1  0.808402  0.676142  0.530233  1
  Li  Li16425  1  0.676142  0.191598  0.469767  1
  Li  Li16426  1  0.191598  0.323858  0.530233  1
  Li  Li16427  1  0.323858  0.808402  0.469767  1
  Li  Li16428  1  0.808402  0.323858  0.469767  1
  Li  Li16429  1  0.323858  0.191598  0.530233  1
  Li  Li16430  1  0.191598  0.676142  0.469767  1
  Li  Li16431  1  0.676142  0.808402  0.530233  1
  Li  Li16432  1  0.530233  0.808402  0.676142  1
  Li  Li16433  1  0.530233  0.191598  0.323858  1
  Li  Li16434  1  0.191598  0.469767  0.676142  1
  Li  Li16435  1  0.469767  0.808402  0.323858  1
  Li  Li16436  1  0.808402  0.530233  0.676142  1
  Li  Li16437  1  0.469767  0.191598  0.676142  1
  Li  Li16438  1  0.191598  0.530233  0.323858  1
  Li  Li16439  1  0.808402  0.469767  0.323858  1
  Li  Li16440  1  0.676142  0.030233  0.308402  1
  Li  Li16441  1  0.530233  0.823858  0.691598  1
  Li  Li16442  1  0.323858  0.969767  0.308402  1
  Li  Li16443  1  0.469767  0.176142  0.691598  1
  Li  Li16444  1  0.676142  0.969767  0.691598  1
  Li  Li16445  1  0.469767  0.823858  0.308402  1
  Li  Li16446  1  0.323858  0.030233  0.691598  1
  Li  Li16447  1  0.530233  0.176142  0.308402  1
  Li  Li16448  1  0.808402  0.176142  0.030233  1
  Li  Li16449  1  0.676142  0.691598  0.969767  1
  Li  Li16450  1  0.191598  0.823858  0.030233  1
  Li  Li16451  1  0.323858  0.308402  0.969767  1
  Li  Li16452  1  0.808402  0.823858  0.969767  1
  Li  Li16453  1  0.323858  0.691598  0.030233  1
  Li  Li16454  1  0.191598  0.176142  0.969767  1
  Li  Li16455  1  0.676142  0.308402  0.030233  1
  Li  Li16456  1  0.530233  0.308402  0.176142  1
  Li  Li16457  1  0.530233  0.691598  0.823858  1
  Li  Li16458  1  0.191598  0.969767  0.176142  1
  Li  Li16459  1  0.469767  0.308402  0.823858  1
  Li  Li16460  1  0.808402  0.030233  0.176142  1
  Li  Li16461  1  0.469767  0.691598  0.176142  1
  Li  Li16462  1  0.191598  0.030233  0.823858  1
  Li  Li16463  1  0.808402  0.969767  0.823858  1
  Li  Li16464  1  0.176142  0.530233  0.308402  1
  Li  Li16465  1  0.030233  0.323858  0.691598  1
  Li  Li16466  1  0.823858  0.469767  0.308402  1
  Li  Li16467  1  0.969767  0.676142  0.691598  1
  Li  Li16468  1  0.176142  0.469767  0.691598  1
  Li  Li16469  1  0.969767  0.323858  0.308402  1
  Li  Li16470  1  0.823858  0.530233  0.691598  1
  Li  Li16471  1  0.030233  0.676142  0.308402  1
  Li  Li16472  1  0.308402  0.676142  0.030233  1
  Li  Li16473  1  0.176142  0.191598  0.969767  1
  Li  Li16474  1  0.691598  0.323858  0.030233  1
  Li  Li16475  1  0.823858  0.808402  0.969767  1
  Li  Li16476  1  0.308402  0.323858  0.969767  1
  Li  Li16477  1  0.823858  0.191598  0.030233  1
  Li  Li16478  1  0.691598  0.676142  0.969767  1
  Li  Li16479  1  0.176142  0.808402  0.030233  1
  Li  Li16480  1  0.030233  0.808402  0.176142  1
  Li  Li16481  1  0.030233  0.191598  0.823858  1
  Li  Li16482  1  0.691598  0.469767  0.176142  1
  Li  Li16483  1  0.969767  0.808402  0.823858  1
  Li  Li16484  1  0.308402  0.530233  0.176142  1
  Li  Li16485  1  0.969767  0.191598  0.176142  1
  Li  Li16486  1  0.691598  0.530233  0.823858  1
  Li  Li16487  1  0.308402  0.469767  0.823858  1
  Li  Li16488  1  0.176142  0.030233  0.808402  1
  Li  Li16489  1  0.030233  0.823858  0.191598  1
  Li  Li16490  1  0.823858  0.969767  0.808402  1
  Li  Li16491  1  0.969767  0.176142  0.191598  1
  Li  Li16492  1  0.176142  0.969767  0.191598  1
  Li  Li16493  1  0.969767  0.823858  0.808402  1
  Li  Li16494  1  0.823858  0.030233  0.191598  1
  Li  Li16495  1  0.030233  0.176142  0.808402  1
  Li  Li16496  1  0.308402  0.176142  0.530233  1
  Li  Li16497  1  0.176142  0.691598  0.469767  1
  Li  Li16498  1  0.691598  0.823858  0.530233  1
  Li  Li16499  1  0.823858  0.308402  0.469767  1
  Li  Li16500  1  0.308402  0.823858  0.469767  1
  Li  Li16501  1  0.823858  0.691598  0.530233  1
  Li  Li16502  1  0.691598  0.176142  0.469767  1
  Li  Li16503  1  0.176142  0.308402  0.530233  1
  Li  Li16504  1  0.030233  0.308402  0.676142  1
  Li  Li16505  1  0.030233  0.691598  0.323858  1
  Li  Li16506  1  0.691598  0.969767  0.676142  1
  Li  Li16507  1  0.969767  0.308402  0.323858  1
  Li  Li16508  1  0.308402  0.030233  0.676142  1
  Li  Li16509  1  0.969767  0.691598  0.676142  1
  Li  Li16510  1  0.691598  0.030233  0.323858  1
  Li  Li16511  1  0.308402  0.969767  0.323858  1
  Li  Li16512  1  0.813012  0.795282  0.977344  1
  Li  Li16513  1  0.795282  0.186988  0.022656  1
  Li  Li16514  1  0.186988  0.204718  0.977344  1
  Li  Li16515  1  0.204718  0.813012  0.022656  1
  Li  Li16516  1  0.813012  0.204718  0.022656  1
  Li  Li16517  1  0.204718  0.186988  0.977344  1
  Li  Li16518  1  0.186988  0.795282  0.022656  1
  Li  Li16519  1  0.795282  0.813012  0.977344  1
  Li  Li16520  1  0.977344  0.813012  0.795282  1
  Li  Li16521  1  0.813012  0.022656  0.204718  1
  Li  Li16522  1  0.022656  0.186988  0.795282  1
  Li  Li16523  1  0.186988  0.977344  0.204718  1
  Li  Li16524  1  0.977344  0.186988  0.204718  1
  Li  Li16525  1  0.186988  0.022656  0.795282  1
  Li  Li16526  1  0.022656  0.813012  0.204718  1
  Li  Li16527  1  0.813012  0.977344  0.795282  1
  Li  Li16528  1  0.795282  0.977344  0.813012  1
  Li  Li16529  1  0.795282  0.022656  0.186988  1
  Li  Li16530  1  0.022656  0.204718  0.813012  1
  Li  Li16531  1  0.204718  0.977344  0.186988  1
  Li  Li16532  1  0.977344  0.795282  0.813012  1
  Li  Li16533  1  0.204718  0.022656  0.813012  1
  Li  Li16534  1  0.022656  0.795282  0.186988  1
  Li  Li16535  1  0.977344  0.204718  0.186988  1
  Li  Li16536  1  0.813012  0.295282  0.477344  1
  Li  Li16537  1  0.795282  0.686988  0.522656  1
  Li  Li16538  1  0.186988  0.704718  0.477344  1
  Li  Li16539  1  0.204718  0.313012  0.522656  1
  Li  Li16540  1  0.813012  0.704718  0.522656  1
  Li  Li16541  1  0.204718  0.686988  0.477344  1
  Li  Li16542  1  0.186988  0.295282  0.522656  1
  Li  Li16543  1  0.795282  0.313012  0.477344  1
  Li  Li16544  1  0.977344  0.313012  0.295282  1
  Li  Li16545  1  0.813012  0.522656  0.704718  1
  Li  Li16546  1  0.022656  0.686988  0.295282  1
  Li  Li16547  1  0.186988  0.477344  0.704718  1
  Li  Li16548  1  0.977344  0.686988  0.704718  1
  Li  Li16549  1  0.186988  0.522656  0.295282  1
  Li  Li16550  1  0.022656  0.313012  0.704718  1
  Li  Li16551  1  0.813012  0.477344  0.295282  1
  Li  Li16552  1  0.795282  0.477344  0.313012  1
  Li  Li16553  1  0.795282  0.522656  0.686988  1
  Li  Li16554  1  0.022656  0.704718  0.313012  1
  Li  Li16555  1  0.204718  0.477344  0.686988  1
  Li  Li16556  1  0.977344  0.295282  0.313012  1
  Li  Li16557  1  0.204718  0.522656  0.313012  1
  Li  Li16558  1  0.022656  0.295282  0.686988  1
  Li  Li16559  1  0.977344  0.704718  0.686988  1
  Li  Li16560  1  0.313012  0.795282  0.477344  1
  Li  Li16561  1  0.295282  0.186988  0.522656  1
  Li  Li16562  1  0.686988  0.204718  0.477344  1
  Li  Li16563  1  0.704718  0.813012  0.522656  1
  Li  Li16564  1  0.313012  0.204718  0.522656  1
  Li  Li16565  1  0.704718  0.186988  0.477344  1
  Li  Li16566  1  0.686988  0.795282  0.522656  1
  Li  Li16567  1  0.295282  0.813012  0.477344  1
  Li  Li16568  1  0.477344  0.813012  0.295282  1
  Li  Li16569  1  0.313012  0.022656  0.704718  1
  Li  Li16570  1  0.522656  0.186988  0.295282  1
  Li  Li16571  1  0.686988  0.977344  0.704718  1
  Li  Li16572  1  0.477344  0.186988  0.704718  1
  Li  Li16573  1  0.686988  0.022656  0.295282  1
  Li  Li16574  1  0.522656  0.813012  0.704718  1
  Li  Li16575  1  0.313012  0.977344  0.295282  1
  Li  Li16576  1  0.295282  0.977344  0.313012  1
  Li  Li16577  1  0.295282  0.022656  0.686988  1
  Li  Li16578  1  0.522656  0.204718  0.313012  1
  Li  Li16579  1  0.704718  0.977344  0.686988  1
  Li  Li16580  1  0.477344  0.795282  0.313012  1
  Li  Li16581  1  0.704718  0.022656  0.313012  1
  Li  Li16582  1  0.522656  0.795282  0.686988  1
  Li  Li16583  1  0.477344  0.204718  0.686988  1
  Li  Li16584  1  0.313012  0.295282  0.977344  1
  Li  Li16585  1  0.295282  0.686988  0.022656  1
  Li  Li16586  1  0.686988  0.704718  0.977344  1
  Li  Li16587  1  0.704718  0.313012  0.022656  1
  Li  Li16588  1  0.313012  0.704718  0.022656  1
  Li  Li16589  1  0.704718  0.686988  0.977344  1
  Li  Li16590  1  0.686988  0.295282  0.022656  1
  Li  Li16591  1  0.295282  0.313012  0.977344  1
  Li  Li16592  1  0.477344  0.313012  0.795282  1
  Li  Li16593  1  0.313012  0.522656  0.204718  1
  Li  Li16594  1  0.522656  0.686988  0.795282  1
  Li  Li16595  1  0.686988  0.477344  0.204718  1
  Li  Li16596  1  0.477344  0.686988  0.204718  1
  Li  Li16597  1  0.686988  0.522656  0.795282  1
  Li  Li16598  1  0.522656  0.313012  0.204718  1
  Li  Li16599  1  0.313012  0.477344  0.795282  1
  Li  Li16600  1  0.295282  0.477344  0.813012  1
  Li  Li16601  1  0.295282  0.522656  0.186988  1
  Li  Li16602  1  0.522656  0.704718  0.813012  1
  Li  Li16603  1  0.704718  0.477344  0.186988  1
  Li  Li16604  1  0.477344  0.295282  0.813012  1
  Li  Li16605  1  0.704718  0.522656  0.813012  1
  Li  Li16606  1  0.522656  0.295282  0.186988  1
  Li  Li16607  1  0.477344  0.704718  0.186988  1
  Li  Li16608  1  0.793484  0.816643  0.973764  1
  Li  Li16609  1  0.816643  0.206516  0.026236  1
  Li  Li16610  1  0.206516  0.183357  0.973764  1
  Li  Li16611  1  0.183357  0.793484  0.026236  1
  Li  Li16612  1  0.793484  0.183357  0.026236  1
  Li  Li16613  1  0.183357  0.206516  0.973764  1
  Li  Li16614  1  0.206516  0.816643  0.026236  1
  Li  Li16615  1  0.816643  0.793484  0.973764  1
  Li  Li16616  1  0.973764  0.793484  0.816643  1
  Li  Li16617  1  0.793484  0.026236  0.183357  1
  Li  Li16618  1  0.026236  0.206516  0.816643  1
  Li  Li16619  1  0.206516  0.973764  0.183357  1
  Li  Li16620  1  0.973764  0.206516  0.183357  1
  Li  Li16621  1  0.206516  0.026236  0.816643  1
  Li  Li16622  1  0.026236  0.793484  0.183357  1
  Li  Li16623  1  0.793484  0.973764  0.816643  1
  Li  Li16624  1  0.816643  0.973764  0.793484  1
  Li  Li16625  1  0.816643  0.026236  0.206516  1
  Li  Li16626  1  0.026236  0.183357  0.793484  1
  Li  Li16627  1  0.183357  0.973764  0.206516  1
  Li  Li16628  1  0.973764  0.816643  0.793484  1
  Li  Li16629  1  0.183357  0.026236  0.793484  1
  Li  Li16630  1  0.026236  0.816643  0.206516  1
  Li  Li16631  1  0.973764  0.183357  0.206516  1
  Li  Li16632  1  0.793484  0.316643  0.473764  1
  Li  Li16633  1  0.816643  0.706516  0.526236  1
  Li  Li16634  1  0.206516  0.683357  0.473764  1
  Li  Li16635  1  0.183357  0.293484  0.526236  1
  Li  Li16636  1  0.793484  0.683357  0.526236  1
  Li  Li16637  1  0.183357  0.706516  0.473764  1
  Li  Li16638  1  0.206516  0.316643  0.526236  1
  Li  Li16639  1  0.816643  0.293484  0.473764  1
  Li  Li16640  1  0.973764  0.293484  0.316643  1
  Li  Li16641  1  0.793484  0.526236  0.683357  1
  Li  Li16642  1  0.026236  0.706516  0.316643  1
  Li  Li16643  1  0.206516  0.473764  0.683357  1
  Li  Li16644  1  0.973764  0.706516  0.683357  1
  Li  Li16645  1  0.206516  0.526236  0.316643  1
  Li  Li16646  1  0.026236  0.293484  0.683357  1
  Li  Li16647  1  0.793484  0.473764  0.316643  1
  Li  Li16648  1  0.816643  0.473764  0.293484  1
  Li  Li16649  1  0.816643  0.526236  0.706516  1
  Li  Li16650  1  0.026236  0.683357  0.293484  1
  Li  Li16651  1  0.183357  0.473764  0.706516  1
  Li  Li16652  1  0.973764  0.316643  0.293484  1
  Li  Li16653  1  0.183357  0.526236  0.293484  1
  Li  Li16654  1  0.026236  0.316643  0.706516  1
  Li  Li16655  1  0.973764  0.683357  0.706516  1
  Li  Li16656  1  0.293484  0.816643  0.473764  1
  Li  Li16657  1  0.316643  0.206516  0.526236  1
  Li  Li16658  1  0.706516  0.183357  0.473764  1
  Li  Li16659  1  0.683357  0.793484  0.526236  1
  Li  Li16660  1  0.293484  0.183357  0.526236  1
  Li  Li16661  1  0.683357  0.206516  0.473764  1
  Li  Li16662  1  0.706516  0.816643  0.526236  1
  Li  Li16663  1  0.316643  0.793484  0.473764  1
  Li  Li16664  1  0.473764  0.793484  0.316643  1
  Li  Li16665  1  0.293484  0.026236  0.683357  1
  Li  Li16666  1  0.526236  0.206516  0.316643  1
  Li  Li16667  1  0.706516  0.973764  0.683357  1
  Li  Li16668  1  0.473764  0.206516  0.683357  1
  Li  Li16669  1  0.706516  0.026236  0.316643  1
  Li  Li16670  1  0.526236  0.793484  0.683357  1
  Li  Li16671  1  0.293484  0.973764  0.316643  1
  Li  Li16672  1  0.316643  0.973764  0.293484  1
  Li  Li16673  1  0.316643  0.026236  0.706516  1
  Li  Li16674  1  0.526236  0.183357  0.293484  1
  Li  Li16675  1  0.683357  0.973764  0.706516  1
  Li  Li16676  1  0.473764  0.816643  0.293484  1
  Li  Li16677  1  0.683357  0.026236  0.293484  1
  Li  Li16678  1  0.526236  0.816643  0.706516  1
  Li  Li16679  1  0.473764  0.183357  0.706516  1
  Li  Li16680  1  0.293484  0.316643  0.973764  1
  Li  Li16681  1  0.316643  0.706516  0.026236  1
  Li  Li16682  1  0.706516  0.683357  0.973764  1
  Li  Li16683  1  0.683357  0.293484  0.026236  1
  Li  Li16684  1  0.293484  0.683357  0.026236  1
  Li  Li16685  1  0.683357  0.706516  0.973764  1
  Li  Li16686  1  0.706516  0.316643  0.026236  1
  Li  Li16687  1  0.316643  0.293484  0.973764  1
  Li  Li16688  1  0.473764  0.293484  0.816643  1
  Li  Li16689  1  0.293484  0.526236  0.183357  1
  Li  Li16690  1  0.526236  0.706516  0.816643  1
  Li  Li16691  1  0.706516  0.473764  0.183357  1
  Li  Li16692  1  0.473764  0.706516  0.183357  1
  Li  Li16693  1  0.706516  0.526236  0.816643  1
  Li  Li16694  1  0.526236  0.293484  0.183357  1
  Li  Li16695  1  0.293484  0.473764  0.816643  1
  Li  Li16696  1  0.316643  0.473764  0.793484  1
  Li  Li16697  1  0.316643  0.526236  0.206516  1
  Li  Li16698  1  0.526236  0.683357  0.793484  1
  Li  Li16699  1  0.683357  0.473764  0.206516  1
  Li  Li16700  1  0.473764  0.316643  0.793484  1
  Li  Li16701  1  0.683357  0.526236  0.793484  1
  Li  Li16702  1  0.526236  0.316643  0.206516  1
  Li  Li16703  1  0.473764  0.683357  0.206516  1
  Li  Li16704  1  0.501052  0.797487  0.717678  1
  Li  Li16705  1  0.797487  0.498948  0.282322  1
  Li  Li16706  1  0.498948  0.202513  0.717678  1
  Li  Li16707  1  0.202513  0.501052  0.282322  1
  Li  Li16708  1  0.501052  0.202513  0.282322  1
  Li  Li16709  1  0.202513  0.498948  0.717678  1
  Li  Li16710  1  0.498948  0.797487  0.282322  1
  Li  Li16711  1  0.797487  0.501052  0.717678  1
  Li  Li16712  1  0.717678  0.501052  0.797487  1
  Li  Li16713  1  0.501052  0.282322  0.202513  1
  Li  Li16714  1  0.282322  0.498948  0.797487  1
  Li  Li16715  1  0.498948  0.717678  0.202513  1
  Li  Li16716  1  0.717678  0.498948  0.202513  1
  Li  Li16717  1  0.498948  0.282322  0.797487  1
  Li  Li16718  1  0.282322  0.501052  0.202513  1
  Li  Li16719  1  0.501052  0.717678  0.797487  1
  Li  Li16720  1  0.797487  0.717678  0.501052  1
  Li  Li16721  1  0.797487  0.282322  0.498948  1
  Li  Li16722  1  0.282322  0.202513  0.501052  1
  Li  Li16723  1  0.202513  0.717678  0.498948  1
  Li  Li16724  1  0.717678  0.797487  0.501052  1
  Li  Li16725  1  0.202513  0.282322  0.501052  1
  Li  Li16726  1  0.282322  0.797487  0.498948  1
  Li  Li16727  1  0.717678  0.202513  0.498948  1
  Li  Li16728  1  0.501052  0.297487  0.217678  1
  Li  Li16729  1  0.797487  0.998948  0.782322  1
  Li  Li16730  1  0.498948  0.702513  0.217678  1
  Li  Li16731  1  0.202513  0.001052  0.782322  1
  Li  Li16732  1  0.501052  0.702513  0.782322  1
  Li  Li16733  1  0.202513  0.998948  0.217678  1
  Li  Li16734  1  0.498948  0.297487  0.782322  1
  Li  Li16735  1  0.797487  0.001052  0.217678  1
  Li  Li16736  1  0.717678  0.001052  0.297487  1
  Li  Li16737  1  0.501052  0.782322  0.702513  1
  Li  Li16738  1  0.282322  0.998948  0.297487  1
  Li  Li16739  1  0.498948  0.217678  0.702513  1
  Li  Li16740  1  0.717678  0.998948  0.702513  1
  Li  Li16741  1  0.498948  0.782322  0.297487  1
  Li  Li16742  1  0.282322  0.001052  0.702513  1
  Li  Li16743  1  0.501052  0.217678  0.297487  1
  Li  Li16744  1  0.797487  0.217678  0.001052  1
  Li  Li16745  1  0.797487  0.782322  0.998948  1
  Li  Li16746  1  0.282322  0.702513  0.001052  1
  Li  Li16747  1  0.202513  0.217678  0.998948  1
  Li  Li16748  1  0.717678  0.297487  0.001052  1
  Li  Li16749  1  0.202513  0.782322  0.001052  1
  Li  Li16750  1  0.282322  0.297487  0.998948  1
  Li  Li16751  1  0.717678  0.702513  0.998948  1
  Li  Li16752  1  0.001052  0.797487  0.217678  1
  Li  Li16753  1  0.297487  0.498948  0.782322  1
  Li  Li16754  1  0.998948  0.202513  0.217678  1
  Li  Li16755  1  0.702513  0.501052  0.782322  1
  Li  Li16756  1  0.001052  0.202513  0.782322  1
  Li  Li16757  1  0.702513  0.498948  0.217678  1
  Li  Li16758  1  0.998948  0.797487  0.782322  1
  Li  Li16759  1  0.297487  0.501052  0.217678  1
  Li  Li16760  1  0.217678  0.501052  0.297487  1
  Li  Li16761  1  0.001052  0.282322  0.702513  1
  Li  Li16762  1  0.782322  0.498948  0.297487  1
  Li  Li16763  1  0.998948  0.717678  0.702513  1
  Li  Li16764  1  0.217678  0.498948  0.702513  1
  Li  Li16765  1  0.998948  0.282322  0.297487  1
  Li  Li16766  1  0.782322  0.501052  0.702513  1
  Li  Li16767  1  0.001052  0.717678  0.297487  1
  Li  Li16768  1  0.297487  0.717678  0.001052  1
  Li  Li16769  1  0.297487  0.282322  0.998948  1
  Li  Li16770  1  0.782322  0.202513  0.001052  1
  Li  Li16771  1  0.702513  0.717678  0.998948  1
  Li  Li16772  1  0.217678  0.797487  0.001052  1
  Li  Li16773  1  0.702513  0.282322  0.001052  1
  Li  Li16774  1  0.782322  0.797487  0.998948  1
  Li  Li16775  1  0.217678  0.202513  0.998948  1
  Li  Li16776  1  0.001052  0.297487  0.717678  1
  Li  Li16777  1  0.297487  0.998948  0.282322  1
  Li  Li16778  1  0.998948  0.702513  0.717678  1
  Li  Li16779  1  0.702513  0.001052  0.282322  1
  Li  Li16780  1  0.001052  0.702513  0.282322  1
  Li  Li16781  1  0.702513  0.998948  0.717678  1
  Li  Li16782  1  0.998948  0.297487  0.282322  1
  Li  Li16783  1  0.297487  0.001052  0.717678  1
  Li  Li16784  1  0.217678  0.001052  0.797487  1
  Li  Li16785  1  0.001052  0.782322  0.202513  1
  Li  Li16786  1  0.782322  0.998948  0.797487  1
  Li  Li16787  1  0.998948  0.217678  0.202513  1
  Li  Li16788  1  0.217678  0.998948  0.202513  1
  Li  Li16789  1  0.998948  0.782322  0.797487  1
  Li  Li16790  1  0.782322  0.001052  0.202513  1
  Li  Li16791  1  0.001052  0.217678  0.797487  1
  Li  Li16792  1  0.297487  0.217678  0.501052  1
  Li  Li16793  1  0.297487  0.782322  0.498948  1
  Li  Li16794  1  0.782322  0.702513  0.501052  1
  Li  Li16795  1  0.702513  0.217678  0.498948  1
  Li  Li16796  1  0.217678  0.297487  0.501052  1
  Li  Li16797  1  0.702513  0.782322  0.501052  1
  Li  Li16798  1  0.782322  0.297487  0.498948  1
  Li  Li16799  1  0.217678  0.702513  0.498948  1
  Li  Li16800  1  0.520172  0.784781  0.719255  1
  Li  Li16801  1  0.784781  0.479828  0.280745  1
  Li  Li16802  1  0.479828  0.215219  0.719255  1
  Li  Li16803  1  0.215219  0.520172  0.280745  1
  Li  Li16804  1  0.520172  0.215219  0.280745  1
  Li  Li16805  1  0.215219  0.479828  0.719255  1
  Li  Li16806  1  0.479828  0.784781  0.280745  1
  Li  Li16807  1  0.784781  0.520172  0.719255  1
  Li  Li16808  1  0.719255  0.520172  0.784781  1
  Li  Li16809  1  0.520172  0.280745  0.215219  1
  Li  Li16810  1  0.280745  0.479828  0.784781  1
  Li  Li16811  1  0.479828  0.719255  0.215219  1
  Li  Li16812  1  0.719255  0.479828  0.215219  1
  Li  Li16813  1  0.479828  0.280745  0.784781  1
  Li  Li16814  1  0.280745  0.520172  0.215219  1
  Li  Li16815  1  0.520172  0.719255  0.784781  1
  Li  Li16816  1  0.784781  0.719255  0.520172  1
  Li  Li16817  1  0.784781  0.280745  0.479828  1
  Li  Li16818  1  0.280745  0.215219  0.520172  1
  Li  Li16819  1  0.215219  0.719255  0.479828  1
  Li  Li16820  1  0.719255  0.784781  0.520172  1
  Li  Li16821  1  0.215219  0.280745  0.520172  1
  Li  Li16822  1  0.280745  0.784781  0.479828  1
  Li  Li16823  1  0.719255  0.215219  0.479828  1
  Li  Li16824  1  0.520172  0.284781  0.219255  1
  Li  Li16825  1  0.784781  0.979828  0.780745  1
  Li  Li16826  1  0.479828  0.715219  0.219255  1
  Li  Li16827  1  0.215219  0.020172  0.780745  1
  Li  Li16828  1  0.520172  0.715219  0.780745  1
  Li  Li16829  1  0.215219  0.979828  0.219255  1
  Li  Li16830  1  0.479828  0.284781  0.780745  1
  Li  Li16831  1  0.784781  0.020172  0.219255  1
  Li  Li16832  1  0.719255  0.020172  0.284781  1
  Li  Li16833  1  0.520172  0.780745  0.715219  1
  Li  Li16834  1  0.280745  0.979828  0.284781  1
  Li  Li16835  1  0.479828  0.219255  0.715219  1
  Li  Li16836  1  0.719255  0.979828  0.715219  1
  Li  Li16837  1  0.479828  0.780745  0.284781  1
  Li  Li16838  1  0.280745  0.020172  0.715219  1
  Li  Li16839  1  0.520172  0.219255  0.284781  1
  Li  Li16840  1  0.784781  0.219255  0.020172  1
  Li  Li16841  1  0.784781  0.780745  0.979828  1
  Li  Li16842  1  0.280745  0.715219  0.020172  1
  Li  Li16843  1  0.215219  0.219255  0.979828  1
  Li  Li16844  1  0.719255  0.284781  0.020172  1
  Li  Li16845  1  0.215219  0.780745  0.020172  1
  Li  Li16846  1  0.280745  0.284781  0.979828  1
  Li  Li16847  1  0.719255  0.715219  0.979828  1
  Li  Li16848  1  0.020172  0.784781  0.219255  1
  Li  Li16849  1  0.284781  0.479828  0.780745  1
  Li  Li16850  1  0.979828  0.215219  0.219255  1
  Li  Li16851  1  0.715219  0.520172  0.780745  1
  Li  Li16852  1  0.020172  0.215219  0.780745  1
  Li  Li16853  1  0.715219  0.479828  0.219255  1
  Li  Li16854  1  0.979828  0.784781  0.780745  1
  Li  Li16855  1  0.284781  0.520172  0.219255  1
  Li  Li16856  1  0.219255  0.520172  0.284781  1
  Li  Li16857  1  0.020172  0.280745  0.715219  1
  Li  Li16858  1  0.780745  0.479828  0.284781  1
  Li  Li16859  1  0.979828  0.719255  0.715219  1
  Li  Li16860  1  0.219255  0.479828  0.715219  1
  Li  Li16861  1  0.979828  0.280745  0.284781  1
  Li  Li16862  1  0.780745  0.520172  0.715219  1
  Li  Li16863  1  0.020172  0.719255  0.284781  1
  Li  Li16864  1  0.284781  0.719255  0.020172  1
  Li  Li16865  1  0.284781  0.280745  0.979828  1
  Li  Li16866  1  0.780745  0.215219  0.020172  1
  Li  Li16867  1  0.715219  0.719255  0.979828  1
  Li  Li16868  1  0.219255  0.784781  0.020172  1
  Li  Li16869  1  0.715219  0.280745  0.020172  1
  Li  Li16870  1  0.780745  0.784781  0.979828  1
  Li  Li16871  1  0.219255  0.215219  0.979828  1
  Li  Li16872  1  0.020172  0.284781  0.719255  1
  Li  Li16873  1  0.284781  0.979828  0.280745  1
  Li  Li16874  1  0.979828  0.715219  0.719255  1
  Li  Li16875  1  0.715219  0.020172  0.280745  1
  Li  Li16876  1  0.020172  0.715219  0.280745  1
  Li  Li16877  1  0.715219  0.979828  0.719255  1
  Li  Li16878  1  0.979828  0.284781  0.280745  1
  Li  Li16879  1  0.284781  0.020172  0.719255  1
  Li  Li16880  1  0.219255  0.020172  0.784781  1
  Li  Li16881  1  0.020172  0.780745  0.215219  1
  Li  Li16882  1  0.780745  0.979828  0.784781  1
  Li  Li16883  1  0.979828  0.219255  0.215219  1
  Li  Li16884  1  0.219255  0.979828  0.215219  1
  Li  Li16885  1  0.979828  0.780745  0.784781  1
  Li  Li16886  1  0.780745  0.020172  0.215219  1
  Li  Li16887  1  0.020172  0.219255  0.784781  1
  Li  Li16888  1  0.284781  0.219255  0.520172  1
  Li  Li16889  1  0.284781  0.780745  0.479828  1
  Li  Li16890  1  0.780745  0.715219  0.520172  1
  Li  Li16891  1  0.715219  0.219255  0.479828  1
  Li  Li16892  1  0.219255  0.284781  0.520172  1
  Li  Li16893  1  0.715219  0.780745  0.520172  1
  Li  Li16894  1  0.780745  0.284781  0.479828  1
  Li  Li16895  1  0.219255  0.715219  0.479828  1
  Li  Li16896  1  0.764365  0.746701  0.976925  1
  Li  Li16897  1  0.746701  0.235635  0.023075  1
  Li  Li16898  1  0.235635  0.253299  0.976925  1
  Li  Li16899  1  0.253299  0.764365  0.023075  1
  Li  Li16900  1  0.764365  0.253299  0.023075  1
  Li  Li16901  1  0.253299  0.235635  0.976925  1
  Li  Li16902  1  0.235635  0.746701  0.023075  1
  Li  Li16903  1  0.746701  0.764365  0.976925  1
  Li  Li16904  1  0.976925  0.764365  0.746701  1
  Li  Li16905  1  0.764365  0.023075  0.253299  1
  Li  Li16906  1  0.023075  0.235635  0.746701  1
  Li  Li16907  1  0.235635  0.976925  0.253299  1
  Li  Li16908  1  0.976925  0.235635  0.253299  1
  Li  Li16909  1  0.235635  0.023075  0.746701  1
  Li  Li16910  1  0.023075  0.764365  0.253299  1
  Li  Li16911  1  0.764365  0.976925  0.746701  1
  Li  Li16912  1  0.746701  0.976925  0.764365  1
  Li  Li16913  1  0.746701  0.023075  0.235635  1
  Li  Li16914  1  0.023075  0.253299  0.764365  1
  Li  Li16915  1  0.253299  0.976925  0.235635  1
  Li  Li16916  1  0.976925  0.746701  0.764365  1
  Li  Li16917  1  0.253299  0.023075  0.764365  1
  Li  Li16918  1  0.023075  0.746701  0.235635  1
  Li  Li16919  1  0.976925  0.253299  0.235635  1
  Li  Li16920  1  0.764365  0.246701  0.476925  1
  Li  Li16921  1  0.746701  0.735635  0.523075  1
  Li  Li16922  1  0.235635  0.753299  0.476925  1
  Li  Li16923  1  0.253299  0.264365  0.523075  1
  Li  Li16924  1  0.764365  0.753299  0.523075  1
  Li  Li16925  1  0.253299  0.735635  0.476925  1
  Li  Li16926  1  0.235635  0.246701  0.523075  1
  Li  Li16927  1  0.746701  0.264365  0.476925  1
  Li  Li16928  1  0.976925  0.264365  0.246701  1
  Li  Li16929  1  0.764365  0.523075  0.753299  1
  Li  Li16930  1  0.023075  0.735635  0.246701  1
  Li  Li16931  1  0.235635  0.476925  0.753299  1
  Li  Li16932  1  0.976925  0.735635  0.753299  1
  Li  Li16933  1  0.235635  0.523075  0.246701  1
  Li  Li16934  1  0.023075  0.264365  0.753299  1
  Li  Li16935  1  0.764365  0.476925  0.246701  1
  Li  Li16936  1  0.746701  0.476925  0.264365  1
  Li  Li16937  1  0.746701  0.523075  0.735635  1
  Li  Li16938  1  0.023075  0.753299  0.264365  1
  Li  Li16939  1  0.253299  0.476925  0.735635  1
  Li  Li16940  1  0.976925  0.246701  0.264365  1
  Li  Li16941  1  0.253299  0.523075  0.264365  1
  Li  Li16942  1  0.023075  0.246701  0.735635  1
  Li  Li16943  1  0.976925  0.753299  0.735635  1
  Li  Li16944  1  0.264365  0.746701  0.476925  1
  Li  Li16945  1  0.246701  0.235635  0.523075  1
  Li  Li16946  1  0.735635  0.253299  0.476925  1
  Li  Li16947  1  0.753299  0.764365  0.523075  1
  Li  Li16948  1  0.264365  0.253299  0.523075  1
  Li  Li16949  1  0.753299  0.235635  0.476925  1
  Li  Li16950  1  0.735635  0.746701  0.523075  1
  Li  Li16951  1  0.246701  0.764365  0.476925  1
  Li  Li16952  1  0.476925  0.764365  0.246701  1
  Li  Li16953  1  0.264365  0.023075  0.753299  1
  Li  Li16954  1  0.523075  0.235635  0.246701  1
  Li  Li16955  1  0.735635  0.976925  0.753299  1
  Li  Li16956  1  0.476925  0.235635  0.753299  1
  Li  Li16957  1  0.735635  0.023075  0.246701  1
  Li  Li16958  1  0.523075  0.764365  0.753299  1
  Li  Li16959  1  0.264365  0.976925  0.246701  1
  Li  Li16960  1  0.246701  0.976925  0.264365  1
  Li  Li16961  1  0.246701  0.023075  0.735635  1
  Li  Li16962  1  0.523075  0.253299  0.264365  1
  Li  Li16963  1  0.753299  0.976925  0.735635  1
  Li  Li16964  1  0.476925  0.746701  0.264365  1
  Li  Li16965  1  0.753299  0.023075  0.264365  1
  Li  Li16966  1  0.523075  0.746701  0.735635  1
  Li  Li16967  1  0.476925  0.253299  0.735635  1
  Li  Li16968  1  0.264365  0.246701  0.976925  1
  Li  Li16969  1  0.246701  0.735635  0.023075  1
  Li  Li16970  1  0.735635  0.753299  0.976925  1
  Li  Li16971  1  0.753299  0.264365  0.023075  1
  Li  Li16972  1  0.264365  0.753299  0.023075  1
  Li  Li16973  1  0.753299  0.735635  0.976925  1
  Li  Li16974  1  0.735635  0.246701  0.023075  1
  Li  Li16975  1  0.246701  0.264365  0.976925  1
  Li  Li16976  1  0.476925  0.264365  0.746701  1
  Li  Li16977  1  0.264365  0.523075  0.253299  1
  Li  Li16978  1  0.523075  0.735635  0.746701  1
  Li  Li16979  1  0.735635  0.476925  0.253299  1
  Li  Li16980  1  0.476925  0.735635  0.253299  1
  Li  Li16981  1  0.735635  0.523075  0.746701  1
  Li  Li16982  1  0.523075  0.264365  0.253299  1
  Li  Li16983  1  0.264365  0.476925  0.746701  1
  Li  Li16984  1  0.246701  0.476925  0.764365  1
  Li  Li16985  1  0.246701  0.523075  0.235635  1
  Li  Li16986  1  0.523075  0.753299  0.764365  1
  Li  Li16987  1  0.753299  0.476925  0.235635  1
  Li  Li16988  1  0.476925  0.246701  0.764365  1
  Li  Li16989  1  0.753299  0.523075  0.764365  1
  Li  Li16990  1  0.523075  0.246701  0.235635  1
  Li  Li16991  1  0.476925  0.753299  0.235635  1
  Li  Li16992  1  0.799527  0.973435  0.816419  1
  Li  Li16993  1  0.973435  0.200473  0.183581  1
  Li  Li16994  1  0.200473  0.026565  0.816419  1
  Li  Li16995  1  0.026565  0.799527  0.183581  1
  Li  Li16996  1  0.799527  0.026565  0.183581  1
  Li  Li16997  1  0.026565  0.200473  0.816419  1
  Li  Li16998  1  0.200473  0.973435  0.183581  1
  Li  Li16999  1  0.973435  0.799527  0.816419  1
  Li  Li17000  1  0.816419  0.799527  0.973435  1
  Li  Li17001  1  0.799527  0.183581  0.026565  1
  Li  Li17002  1  0.183581  0.200473  0.973435  1
  Li  Li17003  1  0.200473  0.816419  0.026565  1
  Li  Li17004  1  0.816419  0.200473  0.026565  1
  Li  Li17005  1  0.200473  0.183581  0.973435  1
  Li  Li17006  1  0.183581  0.799527  0.026565  1
  Li  Li17007  1  0.799527  0.816419  0.973435  1
  Li  Li17008  1  0.973435  0.816419  0.799527  1
  Li  Li17009  1  0.973435  0.183581  0.200473  1
  Li  Li17010  1  0.183581  0.026565  0.799527  1
  Li  Li17011  1  0.026565  0.816419  0.200473  1
  Li  Li17012  1  0.816419  0.973435  0.799527  1
  Li  Li17013  1  0.026565  0.183581  0.799527  1
  Li  Li17014  1  0.183581  0.973435  0.200473  1
  Li  Li17015  1  0.816419  0.026565  0.200473  1
  Li  Li17016  1  0.799527  0.473435  0.316420  1
  Li  Li17017  1  0.973435  0.700473  0.683580  1
  Li  Li17018  1  0.200473  0.526565  0.316420  1
  Li  Li17019  1  0.026565  0.299527  0.683580  1
  Li  Li17020  1  0.799527  0.526565  0.683580  1
  Li  Li17021  1  0.026565  0.700473  0.316420  1
  Li  Li17022  1  0.200473  0.473435  0.683580  1
  Li  Li17023  1  0.973435  0.299527  0.316420  1
  Li  Li17024  1  0.816419  0.299527  0.473435  1
  Li  Li17025  1  0.799527  0.683580  0.526565  1
  Li  Li17026  1  0.183581  0.700473  0.473435  1
  Li  Li17027  1  0.200473  0.316420  0.526565  1
  Li  Li17028  1  0.816419  0.700473  0.526565  1
  Li  Li17029  1  0.200473  0.683580  0.473435  1
  Li  Li17030  1  0.183581  0.299527  0.526565  1
  Li  Li17031  1  0.799527  0.316420  0.473435  1
  Li  Li17032  1  0.973435  0.316420  0.299527  1
  Li  Li17033  1  0.973435  0.683580  0.700473  1
  Li  Li17034  1  0.183581  0.526565  0.299527  1
  Li  Li17035  1  0.026565  0.316420  0.700473  1
  Li  Li17036  1  0.816419  0.473435  0.299527  1
  Li  Li17037  1  0.026565  0.683580  0.299527  1
  Li  Li17038  1  0.183581  0.473435  0.700473  1
  Li  Li17039  1  0.816419  0.526565  0.700473  1
  Li  Li17040  1  0.299527  0.973435  0.316420  1
  Li  Li17041  1  0.473435  0.200473  0.683580  1
  Li  Li17042  1  0.700473  0.026565  0.316420  1
  Li  Li17043  1  0.526565  0.799527  0.683580  1
  Li  Li17044  1  0.299527  0.026565  0.683580  1
  Li  Li17045  1  0.526565  0.200473  0.316420  1
  Li  Li17046  1  0.700473  0.973435  0.683580  1
  Li  Li17047  1  0.473435  0.799527  0.316420  1
  Li  Li17048  1  0.316420  0.799527  0.473435  1
  Li  Li17049  1  0.299527  0.183581  0.526565  1
  Li  Li17050  1  0.683580  0.200473  0.473435  1
  Li  Li17051  1  0.700473  0.816419  0.526565  1
  Li  Li17052  1  0.316420  0.200473  0.526565  1
  Li  Li17053  1  0.700473  0.183581  0.473435  1
  Li  Li17054  1  0.683580  0.799527  0.526565  1
  Li  Li17055  1  0.299527  0.816419  0.473435  1
  Li  Li17056  1  0.473435  0.816419  0.299527  1
  Li  Li17057  1  0.473435  0.183581  0.700473  1
  Li  Li17058  1  0.683580  0.026565  0.299527  1
  Li  Li17059  1  0.526565  0.816419  0.700473  1
  Li  Li17060  1  0.316420  0.973435  0.299527  1
  Li  Li17061  1  0.526565  0.183581  0.299527  1
  Li  Li17062  1  0.683580  0.973435  0.700473  1
  Li  Li17063  1  0.316420  0.026565  0.700473  1
  Li  Li17064  1  0.299527  0.473435  0.816419  1
  Li  Li17065  1  0.473435  0.700473  0.183581  1
  Li  Li17066  1  0.700473  0.526565  0.816419  1
  Li  Li17067  1  0.526565  0.299527  0.183581  1
  Li  Li17068  1  0.299527  0.526565  0.183581  1
  Li  Li17069  1  0.526565  0.700473  0.816419  1
  Li  Li17070  1  0.700473  0.473435  0.183581  1
  Li  Li17071  1  0.473435  0.299527  0.816419  1
  Li  Li17072  1  0.316420  0.299527  0.973435  1
  Li  Li17073  1  0.299527  0.683580  0.026565  1
  Li  Li17074  1  0.683580  0.700473  0.973435  1
  Li  Li17075  1  0.700473  0.316420  0.026565  1
  Li  Li17076  1  0.316420  0.700473  0.026565  1
  Li  Li17077  1  0.700473  0.683580  0.973435  1
  Li  Li17078  1  0.683580  0.299527  0.026565  1
  Li  Li17079  1  0.299527  0.316420  0.973435  1
  Li  Li17080  1  0.473435  0.316420  0.799527  1
  Li  Li17081  1  0.473435  0.683580  0.200473  1
  Li  Li17082  1  0.683580  0.526565  0.799527  1
  Li  Li17083  1  0.526565  0.316420  0.200473  1
  Li  Li17084  1  0.316420  0.473435  0.799527  1
  Li  Li17085  1  0.526565  0.683580  0.799527  1
  Li  Li17086  1  0.683580  0.473435  0.200473  1
  Li  Li17087  1  0.316420  0.526565  0.200473  1
  Li  Li17088  1  0.911098  0.578717  0.711330  1
  Li  Li17089  1  0.578717  0.088902  0.288670  1
  Li  Li17090  1  0.088902  0.421283  0.711330  1
  Li  Li17091  1  0.421283  0.911098  0.288670  1
  Li  Li17092  1  0.911098  0.421283  0.288670  1
  Li  Li17093  1  0.421283  0.088902  0.711330  1
  Li  Li17094  1  0.088902  0.578717  0.288670  1
  Li  Li17095  1  0.578717  0.911098  0.711330  1
  Li  Li17096  1  0.711330  0.911098  0.578717  1
  Li  Li17097  1  0.911098  0.288670  0.421283  1
  Li  Li17098  1  0.288670  0.088902  0.578717  1
  Li  Li17099  1  0.088902  0.711330  0.421283  1
  Li  Li17100  1  0.711330  0.088902  0.421283  1
  Li  Li17101  1  0.088902  0.288670  0.578717  1
  Li  Li17102  1  0.288670  0.911098  0.421283  1
  Li  Li17103  1  0.911098  0.711330  0.578717  1
  Li  Li17104  1  0.578717  0.711330  0.911098  1
  Li  Li17105  1  0.578717  0.288670  0.088902  1
  Li  Li17106  1  0.288670  0.421283  0.911098  1
  Li  Li17107  1  0.421283  0.711330  0.088902  1
  Li  Li17108  1  0.711330  0.578717  0.911098  1
  Li  Li17109  1  0.421283  0.288670  0.911098  1
  Li  Li17110  1  0.288670  0.578717  0.088902  1
  Li  Li17111  1  0.711330  0.421283  0.088902  1
  Li  Li17112  1  0.911098  0.078717  0.211330  1
  Li  Li17113  1  0.578717  0.588902  0.788670  1
  Li  Li17114  1  0.088902  0.921283  0.211330  1
  Li  Li17115  1  0.421283  0.411098  0.788670  1
  Li  Li17116  1  0.911098  0.921283  0.788670  1
  Li  Li17117  1  0.421283  0.588902  0.211330  1
  Li  Li17118  1  0.088902  0.078717  0.788670  1
  Li  Li17119  1  0.578717  0.411098  0.211330  1
  Li  Li17120  1  0.711330  0.411098  0.078717  1
  Li  Li17121  1  0.911098  0.788670  0.921283  1
  Li  Li17122  1  0.288670  0.588902  0.078717  1
  Li  Li17123  1  0.088902  0.211330  0.921283  1
  Li  Li17124  1  0.711330  0.588902  0.921283  1
  Li  Li17125  1  0.088902  0.788670  0.078717  1
  Li  Li17126  1  0.288670  0.411098  0.921283  1
  Li  Li17127  1  0.911098  0.211330  0.078717  1
  Li  Li17128  1  0.578717  0.211330  0.411098  1
  Li  Li17129  1  0.578717  0.788670  0.588902  1
  Li  Li17130  1  0.288670  0.921283  0.411098  1
  Li  Li17131  1  0.421283  0.211330  0.588902  1
  Li  Li17132  1  0.711330  0.078717  0.411098  1
  Li  Li17133  1  0.421283  0.788670  0.411098  1
  Li  Li17134  1  0.288670  0.078717  0.588902  1
  Li  Li17135  1  0.711330  0.921283  0.588902  1
  Li  Li17136  1  0.411098  0.578717  0.211330  1
  Li  Li17137  1  0.078717  0.088902  0.788670  1
  Li  Li17138  1  0.588902  0.421283  0.211330  1
  Li  Li17139  1  0.921283  0.911098  0.788670  1
  Li  Li17140  1  0.411098  0.421283  0.788670  1
  Li  Li17141  1  0.921283  0.088902  0.211330  1
  Li  Li17142  1  0.588902  0.578717  0.788670  1
  Li  Li17143  1  0.078717  0.911098  0.211330  1
  Li  Li17144  1  0.211330  0.911098  0.078717  1
  Li  Li17145  1  0.411098  0.288670  0.921283  1
  Li  Li17146  1  0.788670  0.088902  0.078717  1
  Li  Li17147  1  0.588902  0.711330  0.921283  1
  Li  Li17148  1  0.211330  0.088902  0.921283  1
  Li  Li17149  1  0.588902  0.288670  0.078717  1
  Li  Li17150  1  0.788670  0.911098  0.921283  1
  Li  Li17151  1  0.411098  0.711330  0.078717  1
  Li  Li17152  1  0.078717  0.711330  0.411098  1
  Li  Li17153  1  0.078717  0.288670  0.588902  1
  Li  Li17154  1  0.788670  0.421283  0.411098  1
  Li  Li17155  1  0.921283  0.711330  0.588902  1
  Li  Li17156  1  0.211330  0.578717  0.411098  1
  Li  Li17157  1  0.921283  0.288670  0.411098  1
  Li  Li17158  1  0.788670  0.578717  0.588902  1
  Li  Li17159  1  0.211330  0.421283  0.588902  1
  Li  Li17160  1  0.411098  0.078717  0.711330  1
  Li  Li17161  1  0.078717  0.588902  0.288670  1
  Li  Li17162  1  0.588902  0.921283  0.711330  1
  Li  Li17163  1  0.921283  0.411098  0.288670  1
  Li  Li17164  1  0.411098  0.921283  0.288670  1
  Li  Li17165  1  0.921283  0.588902  0.711330  1
  Li  Li17166  1  0.588902  0.078717  0.288670  1
  Li  Li17167  1  0.078717  0.411098  0.711330  1
  Li  Li17168  1  0.211330  0.411098  0.578717  1
  Li  Li17169  1  0.411098  0.788670  0.421283  1
  Li  Li17170  1  0.788670  0.588902  0.578717  1
  Li  Li17171  1  0.588902  0.211330  0.421283  1
  Li  Li17172  1  0.211330  0.588902  0.421283  1
  Li  Li17173  1  0.588902  0.788670  0.578717  1
  Li  Li17174  1  0.788670  0.411098  0.421283  1
  Li  Li17175  1  0.411098  0.211330  0.578717  1
  Li  Li17176  1  0.078717  0.211330  0.911098  1
  Li  Li17177  1  0.078717  0.788670  0.088902  1
  Li  Li17178  1  0.788670  0.921283  0.911098  1
  Li  Li17179  1  0.921283  0.211330  0.088902  1
  Li  Li17180  1  0.211330  0.078717  0.911098  1
  Li  Li17181  1  0.921283  0.788670  0.911098  1
  Li  Li17182  1  0.788670  0.078717  0.088902  1
  Li  Li17183  1  0.211330  0.921283  0.088902  1
  Li  Li17184  1  0.972057  0.803909  0.797702  1
  Li  Li17185  1  0.803909  0.027943  0.202298  1
  Li  Li17186  1  0.027943  0.196091  0.797702  1
  Li  Li17187  1  0.196091  0.972057  0.202298  1
  Li  Li17188  1  0.972057  0.196091  0.202298  1
  Li  Li17189  1  0.196091  0.027943  0.797702  1
  Li  Li17190  1  0.027943  0.803909  0.202298  1
  Li  Li17191  1  0.803909  0.972057  0.797702  1
  Li  Li17192  1  0.797702  0.972057  0.803909  1
  Li  Li17193  1  0.972057  0.202298  0.196091  1
  Li  Li17194  1  0.202298  0.027943  0.803909  1
  Li  Li17195  1  0.027943  0.797702  0.196091  1
  Li  Li17196  1  0.797702  0.027943  0.196091  1
  Li  Li17197  1  0.027943  0.202298  0.803909  1
  Li  Li17198  1  0.202298  0.972057  0.196091  1
  Li  Li17199  1  0.972057  0.797702  0.803909  1
  Li  Li17200  1  0.803909  0.797702  0.972057  1
  Li  Li17201  1  0.803909  0.202298  0.027943  1
  Li  Li17202  1  0.202298  0.196091  0.972057  1
  Li  Li17203  1  0.196091  0.797702  0.027943  1
  Li  Li17204  1  0.797702  0.803909  0.972057  1
  Li  Li17205  1  0.196091  0.202298  0.972057  1
  Li  Li17206  1  0.202298  0.803909  0.027943  1
  Li  Li17207  1  0.797702  0.196091  0.027943  1
  Li  Li17208  1  0.972057  0.303909  0.297702  1
  Li  Li17209  1  0.803909  0.527943  0.702298  1
  Li  Li17210  1  0.027943  0.696091  0.297702  1
  Li  Li17211  1  0.196091  0.472057  0.702298  1
  Li  Li17212  1  0.972057  0.696091  0.702298  1
  Li  Li17213  1  0.196091  0.527943  0.297702  1
  Li  Li17214  1  0.027943  0.303909  0.702298  1
  Li  Li17215  1  0.803909  0.472057  0.297702  1
  Li  Li17216  1  0.797702  0.472057  0.303909  1
  Li  Li17217  1  0.972057  0.702298  0.696091  1
  Li  Li17218  1  0.202298  0.527943  0.303909  1
  Li  Li17219  1  0.027943  0.297702  0.696091  1
  Li  Li17220  1  0.797702  0.527943  0.696091  1
  Li  Li17221  1  0.027943  0.702298  0.303909  1
  Li  Li17222  1  0.202298  0.472057  0.696091  1
  Li  Li17223  1  0.972057  0.297702  0.303909  1
  Li  Li17224  1  0.803909  0.297702  0.472057  1
  Li  Li17225  1  0.803909  0.702298  0.527943  1
  Li  Li17226  1  0.202298  0.696091  0.472057  1
  Li  Li17227  1  0.196091  0.297702  0.527943  1
  Li  Li17228  1  0.797702  0.303909  0.472057  1
  Li  Li17229  1  0.196091  0.702298  0.472057  1
  Li  Li17230  1  0.202298  0.303909  0.527943  1
  Li  Li17231  1  0.797702  0.696091  0.527943  1
  Li  Li17232  1  0.472057  0.803909  0.297702  1
  Li  Li17233  1  0.303909  0.027943  0.702298  1
  Li  Li17234  1  0.527943  0.196091  0.297702  1
  Li  Li17235  1  0.696091  0.972057  0.702298  1
  Li  Li17236  1  0.472057  0.196091  0.702298  1
  Li  Li17237  1  0.696091  0.027943  0.297702  1
  Li  Li17238  1  0.527943  0.803909  0.702298  1
  Li  Li17239  1  0.303909  0.972057  0.297702  1
  Li  Li17240  1  0.297702  0.972057  0.303909  1
  Li  Li17241  1  0.472057  0.202298  0.696091  1
  Li  Li17242  1  0.702298  0.027943  0.303909  1
  Li  Li17243  1  0.527943  0.797702  0.696091  1
  Li  Li17244  1  0.297702  0.027943  0.696091  1
  Li  Li17245  1  0.527943  0.202298  0.303909  1
  Li  Li17246  1  0.702298  0.972057  0.696091  1
  Li  Li17247  1  0.472057  0.797702  0.303909  1
  Li  Li17248  1  0.303909  0.797702  0.472057  1
  Li  Li17249  1  0.303909  0.202298  0.527943  1
  Li  Li17250  1  0.702298  0.196091  0.472057  1
  Li  Li17251  1  0.696091  0.797702  0.527943  1
  Li  Li17252  1  0.297702  0.803909  0.472057  1
  Li  Li17253  1  0.696091  0.202298  0.472057  1
  Li  Li17254  1  0.702298  0.803909  0.527943  1
  Li  Li17255  1  0.297702  0.196091  0.527943  1
  Li  Li17256  1  0.472057  0.303909  0.797702  1
  Li  Li17257  1  0.303909  0.527943  0.202298  1
  Li  Li17258  1  0.527943  0.696091  0.797702  1
  Li  Li17259  1  0.696091  0.472057  0.202298  1
  Li  Li17260  1  0.472057  0.696091  0.202298  1
  Li  Li17261  1  0.696091  0.527943  0.797702  1
  Li  Li17262  1  0.527943  0.303909  0.202298  1
  Li  Li17263  1  0.303909  0.472057  0.797702  1
  Li  Li17264  1  0.297702  0.472057  0.803909  1
  Li  Li17265  1  0.472057  0.702298  0.196091  1
  Li  Li17266  1  0.702298  0.527943  0.803909  1
  Li  Li17267  1  0.527943  0.297702  0.196091  1
  Li  Li17268  1  0.297702  0.527943  0.196091  1
  Li  Li17269  1  0.527943  0.702298  0.803909  1
  Li  Li17270  1  0.702298  0.472057  0.196091  1
  Li  Li17271  1  0.472057  0.297702  0.803909  1
  Li  Li17272  1  0.303909  0.297702  0.972057  1
  Li  Li17273  1  0.303909  0.702298  0.027943  1
  Li  Li17274  1  0.702298  0.696091  0.972057  1
  Li  Li17275  1  0.696091  0.297702  0.027943  1
  Li  Li17276  1  0.297702  0.303909  0.972057  1
  Li  Li17277  1  0.696091  0.702298  0.972057  1
  Li  Li17278  1  0.702298  0.303909  0.027943  1
  Li  Li17279  1  0.297702  0.696091  0.027943  1
  Li  Li17280  1  0.715294  0.789162  0.525484  1
  Li  Li17281  1  0.789162  0.284706  0.474516  1
  Li  Li17282  1  0.284706  0.210838  0.525484  1
  Li  Li17283  1  0.210838  0.715294  0.474516  1
  Li  Li17284  1  0.715294  0.210838  0.474516  1
  Li  Li17285  1  0.210838  0.284706  0.525484  1
  Li  Li17286  1  0.284706  0.789162  0.474516  1
  Li  Li17287  1  0.789162  0.715294  0.525484  1
  Li  Li17288  1  0.525484  0.715294  0.789162  1
  Li  Li17289  1  0.715294  0.474516  0.210838  1
  Li  Li17290  1  0.474516  0.284706  0.789162  1
  Li  Li17291  1  0.284706  0.525484  0.210838  1
  Li  Li17292  1  0.525484  0.284706  0.210838  1
  Li  Li17293  1  0.284706  0.474516  0.789162  1
  Li  Li17294  1  0.474516  0.715294  0.210838  1
  Li  Li17295  1  0.715294  0.525484  0.789162  1
  Li  Li17296  1  0.789162  0.525484  0.715294  1
  Li  Li17297  1  0.789162  0.474516  0.284706  1
  Li  Li17298  1  0.474516  0.210838  0.715294  1
  Li  Li17299  1  0.210838  0.525484  0.284706  1
  Li  Li17300  1  0.525484  0.789162  0.715294  1
  Li  Li17301  1  0.210838  0.474516  0.715294  1
  Li  Li17302  1  0.474516  0.789162  0.284706  1
  Li  Li17303  1  0.525484  0.210838  0.284706  1
  Li  Li17304  1  0.715294  0.289162  0.025484  1
  Li  Li17305  1  0.789162  0.784706  0.974516  1
  Li  Li17306  1  0.284706  0.710838  0.025484  1
  Li  Li17307  1  0.210838  0.215294  0.974516  1
  Li  Li17308  1  0.715294  0.710838  0.974516  1
  Li  Li17309  1  0.210838  0.784706  0.025484  1
  Li  Li17310  1  0.284706  0.289162  0.974516  1
  Li  Li17311  1  0.789162  0.215294  0.025484  1
  Li  Li17312  1  0.525484  0.215294  0.289162  1
  Li  Li17313  1  0.715294  0.974516  0.710838  1
  Li  Li17314  1  0.474516  0.784706  0.289162  1
  Li  Li17315  1  0.284706  0.025484  0.710838  1
  Li  Li17316  1  0.525484  0.784706  0.710838  1
  Li  Li17317  1  0.284706  0.974516  0.289162  1
  Li  Li17318  1  0.474516  0.215294  0.710838  1
  Li  Li17319  1  0.715294  0.025484  0.289162  1
  Li  Li17320  1  0.789162  0.025484  0.215294  1
  Li  Li17321  1  0.789162  0.974516  0.784706  1
  Li  Li17322  1  0.474516  0.710838  0.215294  1
  Li  Li17323  1  0.210838  0.025484  0.784706  1
  Li  Li17324  1  0.525484  0.289162  0.215294  1
  Li  Li17325  1  0.210838  0.974516  0.215294  1
  Li  Li17326  1  0.474516  0.289162  0.784706  1
  Li  Li17327  1  0.525484  0.710838  0.784706  1
  Li  Li17328  1  0.215294  0.789162  0.025484  1
  Li  Li17329  1  0.289162  0.284706  0.974516  1
  Li  Li17330  1  0.784706  0.210838  0.025484  1
  Li  Li17331  1  0.710838  0.715294  0.974516  1
  Li  Li17332  1  0.215294  0.210838  0.974516  1
  Li  Li17333  1  0.710838  0.284706  0.025484  1
  Li  Li17334  1  0.784706  0.789162  0.974516  1
  Li  Li17335  1  0.289162  0.715294  0.025484  1
  Li  Li17336  1  0.025484  0.715294  0.289162  1
  Li  Li17337  1  0.215294  0.474516  0.710838  1
  Li  Li17338  1  0.974516  0.284706  0.289162  1
  Li  Li17339  1  0.784706  0.525484  0.710838  1
  Li  Li17340  1  0.025484  0.284706  0.710838  1
  Li  Li17341  1  0.784706  0.474516  0.289162  1
  Li  Li17342  1  0.974516  0.715294  0.710838  1
  Li  Li17343  1  0.215294  0.525484  0.289162  1
  Li  Li17344  1  0.289162  0.525484  0.215294  1
  Li  Li17345  1  0.289162  0.474516  0.784706  1
  Li  Li17346  1  0.974516  0.210838  0.215294  1
  Li  Li17347  1  0.710838  0.525484  0.784706  1
  Li  Li17348  1  0.025484  0.789162  0.215294  1
  Li  Li17349  1  0.710838  0.474516  0.215294  1
  Li  Li17350  1  0.974516  0.789162  0.784706  1
  Li  Li17351  1  0.025484  0.210838  0.784706  1
  Li  Li17352  1  0.215294  0.289162  0.525484  1
  Li  Li17353  1  0.289162  0.784706  0.474516  1
  Li  Li17354  1  0.784706  0.710838  0.525484  1
  Li  Li17355  1  0.710838  0.215294  0.474516  1
  Li  Li17356  1  0.215294  0.710838  0.474516  1
  Li  Li17357  1  0.710838  0.784706  0.525484  1
  Li  Li17358  1  0.784706  0.289162  0.474516  1
  Li  Li17359  1  0.289162  0.215294  0.525484  1
  Li  Li17360  1  0.025484  0.215294  0.789162  1
  Li  Li17361  1  0.215294  0.974516  0.210838  1
  Li  Li17362  1  0.974516  0.784706  0.789162  1
  Li  Li17363  1  0.784706  0.025484  0.210838  1
  Li  Li17364  1  0.025484  0.784706  0.210838  1
  Li  Li17365  1  0.784706  0.974516  0.789162  1
  Li  Li17366  1  0.974516  0.215294  0.210838  1
  Li  Li17367  1  0.215294  0.025484  0.789162  1
  Li  Li17368  1  0.289162  0.025484  0.715294  1
  Li  Li17369  1  0.289162  0.974516  0.284706  1
  Li  Li17370  1  0.974516  0.710838  0.715294  1
  Li  Li17371  1  0.710838  0.025484  0.284706  1
  Li  Li17372  1  0.025484  0.289162  0.715294  1
  Li  Li17373  1  0.710838  0.974516  0.715294  1
  Li  Li17374  1  0.974516  0.289162  0.284706  1
  Li  Li17375  1  0.025484  0.710838  0.284706  1
  Li  Li17376  1  0.732848  0.543974  0.786648  1
  Li  Li17377  1  0.543974  0.267152  0.213352  1
  Li  Li17378  1  0.267152  0.456026  0.786648  1
  Li  Li17379  1  0.456026  0.732848  0.213352  1
  Li  Li17380  1  0.732848  0.456026  0.213352  1
  Li  Li17381  1  0.456026  0.267152  0.786648  1
  Li  Li17382  1  0.267152  0.543974  0.213352  1
  Li  Li17383  1  0.543974  0.732848  0.786648  1
  Li  Li17384  1  0.786648  0.732848  0.543974  1
  Li  Li17385  1  0.732848  0.213352  0.456026  1
  Li  Li17386  1  0.213352  0.267152  0.543974  1
  Li  Li17387  1  0.267152  0.786648  0.456026  1
  Li  Li17388  1  0.786648  0.267152  0.456026  1
  Li  Li17389  1  0.267152  0.213352  0.543974  1
  Li  Li17390  1  0.213352  0.732848  0.456026  1
  Li  Li17391  1  0.732848  0.786648  0.543974  1
  Li  Li17392  1  0.543974  0.786648  0.732848  1
  Li  Li17393  1  0.543974  0.213352  0.267152  1
  Li  Li17394  1  0.213352  0.456026  0.732848  1
  Li  Li17395  1  0.456026  0.786648  0.267152  1
  Li  Li17396  1  0.786648  0.543974  0.732848  1
  Li  Li17397  1  0.456026  0.213352  0.732848  1
  Li  Li17398  1  0.213352  0.543974  0.267152  1
  Li  Li17399  1  0.786648  0.456026  0.267152  1
  Li  Li17400  1  0.732848  0.043974  0.286648  1
  Li  Li17401  1  0.543974  0.767152  0.713352  1
  Li  Li17402  1  0.267152  0.956026  0.286648  1
  Li  Li17403  1  0.456026  0.232848  0.713352  1
  Li  Li17404  1  0.732848  0.956026  0.713352  1
  Li  Li17405  1  0.456026  0.767152  0.286648  1
  Li  Li17406  1  0.267152  0.043974  0.713352  1
  Li  Li17407  1  0.543974  0.232848  0.286648  1
  Li  Li17408  1  0.786648  0.232848  0.043974  1
  Li  Li17409  1  0.732848  0.713352  0.956026  1
  Li  Li17410  1  0.213352  0.767152  0.043974  1
  Li  Li17411  1  0.267152  0.286648  0.956026  1
  Li  Li17412  1  0.786648  0.767152  0.956026  1
  Li  Li17413  1  0.267152  0.713352  0.043974  1
  Li  Li17414  1  0.213352  0.232848  0.956026  1
  Li  Li17415  1  0.732848  0.286648  0.043974  1
  Li  Li17416  1  0.543974  0.286648  0.232848  1
  Li  Li17417  1  0.543974  0.713352  0.767152  1
  Li  Li17418  1  0.213352  0.956026  0.232848  1
  Li  Li17419  1  0.456026  0.286648  0.767152  1
  Li  Li17420  1  0.786648  0.043974  0.232848  1
  Li  Li17421  1  0.456026  0.713352  0.232848  1
  Li  Li17422  1  0.213352  0.043974  0.767152  1
  Li  Li17423  1  0.786648  0.956026  0.767152  1
  Li  Li17424  1  0.232848  0.543974  0.286648  1
  Li  Li17425  1  0.043974  0.267152  0.713352  1
  Li  Li17426  1  0.767152  0.456026  0.286648  1
  Li  Li17427  1  0.956026  0.732848  0.713352  1
  Li  Li17428  1  0.232848  0.456026  0.713352  1
  Li  Li17429  1  0.956026  0.267152  0.286648  1
  Li  Li17430  1  0.767152  0.543974  0.713352  1
  Li  Li17431  1  0.043974  0.732848  0.286648  1
  Li  Li17432  1  0.286648  0.732848  0.043974  1
  Li  Li17433  1  0.232848  0.213352  0.956026  1
  Li  Li17434  1  0.713352  0.267152  0.043974  1
  Li  Li17435  1  0.767152  0.786648  0.956026  1
  Li  Li17436  1  0.286648  0.267152  0.956026  1
  Li  Li17437  1  0.767152  0.213352  0.043974  1
  Li  Li17438  1  0.713352  0.732848  0.956026  1
  Li  Li17439  1  0.232848  0.786648  0.043974  1
  Li  Li17440  1  0.043974  0.786648  0.232848  1
  Li  Li17441  1  0.043974  0.213352  0.767152  1
  Li  Li17442  1  0.713352  0.456026  0.232848  1
  Li  Li17443  1  0.956026  0.786648  0.767152  1
  Li  Li17444  1  0.286648  0.543974  0.232848  1
  Li  Li17445  1  0.956026  0.213352  0.232848  1
  Li  Li17446  1  0.713352  0.543974  0.767152  1
  Li  Li17447  1  0.286648  0.456026  0.767152  1
  Li  Li17448  1  0.232848  0.043974  0.786648  1
  Li  Li17449  1  0.043974  0.767152  0.213352  1
  Li  Li17450  1  0.767152  0.956026  0.786648  1
  Li  Li17451  1  0.956026  0.232848  0.213352  1
  Li  Li17452  1  0.232848  0.956026  0.213352  1
  Li  Li17453  1  0.956026  0.767152  0.786648  1
  Li  Li17454  1  0.767152  0.043974  0.213352  1
  Li  Li17455  1  0.043974  0.232848  0.786648  1
  Li  Li17456  1  0.286648  0.232848  0.543974  1
  Li  Li17457  1  0.232848  0.713352  0.456026  1
  Li  Li17458  1  0.713352  0.767152  0.543974  1
  Li  Li17459  1  0.767152  0.286648  0.456026  1
  Li  Li17460  1  0.286648  0.767152  0.456026  1
  Li  Li17461  1  0.767152  0.713352  0.543974  1
  Li  Li17462  1  0.713352  0.232848  0.456026  1
  Li  Li17463  1  0.232848  0.286648  0.543974  1
  Li  Li17464  1  0.043974  0.286648  0.732848  1
  Li  Li17465  1  0.043974  0.713352  0.267152  1
  Li  Li17466  1  0.713352  0.956026  0.732848  1
  Li  Li17467  1  0.956026  0.286648  0.267152  1
  Li  Li17468  1  0.286648  0.043974  0.732848  1
  Li  Li17469  1  0.956026  0.713352  0.732848  1
  Li  Li17470  1  0.713352  0.043974  0.267152  1
  Li  Li17471  1  0.286648  0.956026  0.267152  1
  Li  Li17472  1  0.954709  0.716361  0.708539  1
  Li  Li17473  1  0.716361  0.045291  0.291461  1
  Li  Li17474  1  0.045291  0.283639  0.708539  1
  Li  Li17475  1  0.283639  0.954709  0.291461  1
  Li  Li17476  1  0.954709  0.283639  0.291461  1
  Li  Li17477  1  0.283639  0.045291  0.708539  1
  Li  Li17478  1  0.045291  0.716361  0.291461  1
  Li  Li17479  1  0.716361  0.954709  0.708539  1
  Li  Li17480  1  0.708539  0.954709  0.716361  1
  Li  Li17481  1  0.954709  0.291461  0.283639  1
  Li  Li17482  1  0.291461  0.045291  0.716361  1
  Li  Li17483  1  0.045291  0.708539  0.283639  1
  Li  Li17484  1  0.708539  0.045291  0.283639  1
  Li  Li17485  1  0.045291  0.291461  0.716361  1
  Li  Li17486  1  0.291461  0.954709  0.283639  1
  Li  Li17487  1  0.954709  0.708539  0.716361  1
  Li  Li17488  1  0.716361  0.708539  0.954709  1
  Li  Li17489  1  0.716361  0.291461  0.045291  1
  Li  Li17490  1  0.291461  0.283639  0.954709  1
  Li  Li17491  1  0.283639  0.708539  0.045291  1
  Li  Li17492  1  0.708539  0.716361  0.954709  1
  Li  Li17493  1  0.283639  0.291461  0.954709  1
  Li  Li17494  1  0.291461  0.716361  0.045291  1
  Li  Li17495  1  0.708539  0.283639  0.045291  1
  Li  Li17496  1  0.954709  0.216361  0.208539  1
  Li  Li17497  1  0.716361  0.545291  0.791461  1
  Li  Li17498  1  0.045291  0.783639  0.208539  1
  Li  Li17499  1  0.283639  0.454709  0.791461  1
  Li  Li17500  1  0.954709  0.783639  0.791461  1
  Li  Li17501  1  0.283639  0.545291  0.208539  1
  Li  Li17502  1  0.045291  0.216361  0.791461  1
  Li  Li17503  1  0.716361  0.454709  0.208539  1
  Li  Li17504  1  0.708539  0.454709  0.216361  1
  Li  Li17505  1  0.954709  0.791461  0.783639  1
  Li  Li17506  1  0.291461  0.545291  0.216361  1
  Li  Li17507  1  0.045291  0.208539  0.783639  1
  Li  Li17508  1  0.708539  0.545291  0.783639  1
  Li  Li17509  1  0.045291  0.791461  0.216361  1
  Li  Li17510  1  0.291461  0.454709  0.783639  1
  Li  Li17511  1  0.954709  0.208539  0.216361  1
  Li  Li17512  1  0.716361  0.208539  0.454709  1
  Li  Li17513  1  0.716361  0.791461  0.545291  1
  Li  Li17514  1  0.291461  0.783639  0.454709  1
  Li  Li17515  1  0.283639  0.208539  0.545291  1
  Li  Li17516  1  0.708539  0.216361  0.454709  1
  Li  Li17517  1  0.283639  0.791461  0.454709  1
  Li  Li17518  1  0.291461  0.216361  0.545291  1
  Li  Li17519  1  0.708539  0.783639  0.545291  1
  Li  Li17520  1  0.454709  0.716361  0.208539  1
  Li  Li17521  1  0.216361  0.045291  0.791461  1
  Li  Li17522  1  0.545291  0.283639  0.208539  1
  Li  Li17523  1  0.783639  0.954709  0.791461  1
  Li  Li17524  1  0.454709  0.283639  0.791461  1
  Li  Li17525  1  0.783639  0.045291  0.208539  1
  Li  Li17526  1  0.545291  0.716361  0.791461  1
  Li  Li17527  1  0.216361  0.954709  0.208539  1
  Li  Li17528  1  0.208539  0.954709  0.216361  1
  Li  Li17529  1  0.454709  0.291461  0.783639  1
  Li  Li17530  1  0.791461  0.045291  0.216361  1
  Li  Li17531  1  0.545291  0.708539  0.783639  1
  Li  Li17532  1  0.208539  0.045291  0.783639  1
  Li  Li17533  1  0.545291  0.291461  0.216361  1
  Li  Li17534  1  0.791461  0.954709  0.783639  1
  Li  Li17535  1  0.454709  0.708539  0.216361  1
  Li  Li17536  1  0.216361  0.708539  0.454709  1
  Li  Li17537  1  0.216361  0.291461  0.545291  1
  Li  Li17538  1  0.791461  0.283639  0.454709  1
  Li  Li17539  1  0.783639  0.708539  0.545291  1
  Li  Li17540  1  0.208539  0.716361  0.454709  1
  Li  Li17541  1  0.783639  0.291461  0.454709  1
  Li  Li17542  1  0.791461  0.716361  0.545291  1
  Li  Li17543  1  0.208539  0.283639  0.545291  1
  Li  Li17544  1  0.454709  0.216361  0.708539  1
  Li  Li17545  1  0.216361  0.545291  0.291461  1
  Li  Li17546  1  0.545291  0.783639  0.708539  1
  Li  Li17547  1  0.783639  0.454709  0.291461  1
  Li  Li17548  1  0.454709  0.783639  0.291461  1
  Li  Li17549  1  0.783639  0.545291  0.708539  1
  Li  Li17550  1  0.545291  0.216361  0.291461  1
  Li  Li17551  1  0.216361  0.454709  0.708539  1
  Li  Li17552  1  0.208539  0.454709  0.716361  1
  Li  Li17553  1  0.454709  0.791461  0.283639  1
  Li  Li17554  1  0.791461  0.545291  0.716361  1
  Li  Li17555  1  0.545291  0.208539  0.283639  1
  Li  Li17556  1  0.208539  0.545291  0.283639  1
  Li  Li17557  1  0.545291  0.791461  0.716361  1
  Li  Li17558  1  0.791461  0.454709  0.283639  1
  Li  Li17559  1  0.454709  0.208539  0.716361  1
  Li  Li17560  1  0.216361  0.208539  0.954709  1
  Li  Li17561  1  0.216361  0.791461  0.045291  1
  Li  Li17562  1  0.791461  0.783639  0.954709  1
  Li  Li17563  1  0.783639  0.208539  0.045291  1
  Li  Li17564  1  0.208539  0.216361  0.954709  1
  Li  Li17565  1  0.783639  0.791461  0.954709  1
  Li  Li17566  1  0.791461  0.216361  0.045291  1
  Li  Li17567  1  0.208539  0.783639  0.045291  1
  Li  Li17568  1  0.775305  0.926030  0.914087  1
  Li  Li17569  1  0.926030  0.224695  0.085913  1
  Li  Li17570  1  0.224695  0.073970  0.914087  1
  Li  Li17571  1  0.073970  0.775305  0.085913  1
  Li  Li17572  1  0.775305  0.073970  0.085913  1
  Li  Li17573  1  0.073970  0.224695  0.914087  1
  Li  Li17574  1  0.224695  0.926030  0.085913  1
  Li  Li17575  1  0.926030  0.775305  0.914087  1
  Li  Li17576  1  0.914087  0.775305  0.926030  1
  Li  Li17577  1  0.775305  0.085913  0.073970  1
  Li  Li17578  1  0.085913  0.224695  0.926030  1
  Li  Li17579  1  0.224695  0.914087  0.073970  1
  Li  Li17580  1  0.914087  0.224695  0.073970  1
  Li  Li17581  1  0.224695  0.085913  0.926030  1
  Li  Li17582  1  0.085913  0.775305  0.073970  1
  Li  Li17583  1  0.775305  0.914087  0.926030  1
  Li  Li17584  1  0.926030  0.914087  0.775305  1
  Li  Li17585  1  0.926030  0.085913  0.224695  1
  Li  Li17586  1  0.085913  0.073970  0.775305  1
  Li  Li17587  1  0.073970  0.914087  0.224695  1
  Li  Li17588  1  0.914087  0.926030  0.775305  1
  Li  Li17589  1  0.073970  0.085913  0.775305  1
  Li  Li17590  1  0.085913  0.926030  0.224695  1
  Li  Li17591  1  0.914087  0.073970  0.224695  1
  Li  Li17592  1  0.775305  0.426030  0.414087  1
  Li  Li17593  1  0.926030  0.724695  0.585913  1
  Li  Li17594  1  0.224695  0.573970  0.414087  1
  Li  Li17595  1  0.073970  0.275305  0.585913  1
  Li  Li17596  1  0.775305  0.573970  0.585913  1
  Li  Li17597  1  0.073970  0.724695  0.414087  1
  Li  Li17598  1  0.224695  0.426030  0.585913  1
  Li  Li17599  1  0.926030  0.275305  0.414087  1
  Li  Li17600  1  0.914087  0.275305  0.426030  1
  Li  Li17601  1  0.775305  0.585913  0.573970  1
  Li  Li17602  1  0.085913  0.724695  0.426030  1
  Li  Li17603  1  0.224695  0.414087  0.573970  1
  Li  Li17604  1  0.914087  0.724695  0.573970  1
  Li  Li17605  1  0.224695  0.585913  0.426030  1
  Li  Li17606  1  0.085913  0.275305  0.573970  1
  Li  Li17607  1  0.775305  0.414087  0.426030  1
  Li  Li17608  1  0.926030  0.414087  0.275305  1
  Li  Li17609  1  0.926030  0.585913  0.724695  1
  Li  Li17610  1  0.085913  0.573970  0.275305  1
  Li  Li17611  1  0.073970  0.414087  0.724695  1
  Li  Li17612  1  0.914087  0.426030  0.275305  1
  Li  Li17613  1  0.073970  0.585913  0.275305  1
  Li  Li17614  1  0.085913  0.426030  0.724695  1
  Li  Li17615  1  0.914087  0.573970  0.724695  1
  Li  Li17616  1  0.275305  0.926030  0.414087  1
  Li  Li17617  1  0.426030  0.224695  0.585913  1
  Li  Li17618  1  0.724695  0.073970  0.414087  1
  Li  Li17619  1  0.573970  0.775305  0.585913  1
  Li  Li17620  1  0.275305  0.073970  0.585913  1
  Li  Li17621  1  0.573970  0.224695  0.414087  1
  Li  Li17622  1  0.724695  0.926030  0.585913  1
  Li  Li17623  1  0.426030  0.775305  0.414087  1
  Li  Li17624  1  0.414087  0.775305  0.426030  1
  Li  Li17625  1  0.275305  0.085913  0.573970  1
  Li  Li17626  1  0.585913  0.224695  0.426030  1
  Li  Li17627  1  0.724695  0.914087  0.573970  1
  Li  Li17628  1  0.414087  0.224695  0.573970  1
  Li  Li17629  1  0.724695  0.085913  0.426030  1
  Li  Li17630  1  0.585913  0.775305  0.573970  1
  Li  Li17631  1  0.275305  0.914087  0.426030  1
  Li  Li17632  1  0.426030  0.914087  0.275305  1
  Li  Li17633  1  0.426030  0.085913  0.724695  1
  Li  Li17634  1  0.585913  0.073970  0.275305  1
  Li  Li17635  1  0.573970  0.914087  0.724695  1
  Li  Li17636  1  0.414087  0.926030  0.275305  1
  Li  Li17637  1  0.573970  0.085913  0.275305  1
  Li  Li17638  1  0.585913  0.926030  0.724695  1
  Li  Li17639  1  0.414087  0.073970  0.724695  1
  Li  Li17640  1  0.275305  0.426030  0.914087  1
  Li  Li17641  1  0.426030  0.724695  0.085913  1
  Li  Li17642  1  0.724695  0.573970  0.914087  1
  Li  Li17643  1  0.573970  0.275305  0.085913  1
  Li  Li17644  1  0.275305  0.573970  0.085913  1
  Li  Li17645  1  0.573970  0.724695  0.914087  1
  Li  Li17646  1  0.724695  0.426030  0.085913  1
  Li  Li17647  1  0.426030  0.275305  0.914087  1
  Li  Li17648  1  0.414087  0.275305  0.926030  1
  Li  Li17649  1  0.275305  0.585913  0.073970  1
  Li  Li17650  1  0.585913  0.724695  0.926030  1
  Li  Li17651  1  0.724695  0.414087  0.073970  1
  Li  Li17652  1  0.414087  0.724695  0.073970  1
  Li  Li17653  1  0.724695  0.585913  0.926030  1
  Li  Li17654  1  0.585913  0.275305  0.073970  1
  Li  Li17655  1  0.275305  0.414087  0.926030  1
  Li  Li17656  1  0.426030  0.414087  0.775305  1
  Li  Li17657  1  0.426030  0.585913  0.224695  1
  Li  Li17658  1  0.585913  0.573970  0.775305  1
  Li  Li17659  1  0.573970  0.414087  0.224695  1
  Li  Li17660  1  0.414087  0.426030  0.775305  1
  Li  Li17661  1  0.573970  0.585913  0.775305  1
  Li  Li17662  1  0.585913  0.426030  0.224695  1
  Li  Li17663  1  0.414087  0.573970  0.224695  1
  Li  Li17664  1  0.768641  0.724847  0.516873  1
  Li  Li17665  1  0.724847  0.231359  0.483127  1
  Li  Li17666  1  0.231359  0.275153  0.516873  1
  Li  Li17667  1  0.275153  0.768641  0.483127  1
  Li  Li17668  1  0.768641  0.275153  0.483127  1
  Li  Li17669  1  0.275153  0.231359  0.516873  1
  Li  Li17670  1  0.231359  0.724847  0.483127  1
  Li  Li17671  1  0.724847  0.768641  0.516873  1
  Li  Li17672  1  0.516873  0.768641  0.724847  1
  Li  Li17673  1  0.768641  0.483127  0.275153  1
  Li  Li17674  1  0.483127  0.231359  0.724847  1
  Li  Li17675  1  0.231359  0.516873  0.275153  1
  Li  Li17676  1  0.516873  0.231359  0.275153  1
  Li  Li17677  1  0.231359  0.483127  0.724847  1
  Li  Li17678  1  0.483127  0.768641  0.275153  1
  Li  Li17679  1  0.768641  0.516873  0.724847  1
  Li  Li17680  1  0.724847  0.516873  0.768641  1
  Li  Li17681  1  0.724847  0.483127  0.231359  1
  Li  Li17682  1  0.483127  0.275153  0.768641  1
  Li  Li17683  1  0.275153  0.516873  0.231359  1
  Li  Li17684  1  0.516873  0.724847  0.768641  1
  Li  Li17685  1  0.275153  0.483127  0.768641  1
  Li  Li17686  1  0.483127  0.724847  0.231359  1
  Li  Li17687  1  0.516873  0.275153  0.231359  1
  Li  Li17688  1  0.768641  0.224847  0.016873  1
  Li  Li17689  1  0.724847  0.731359  0.983127  1
  Li  Li17690  1  0.231359  0.775153  0.016873  1
  Li  Li17691  1  0.275153  0.268641  0.983127  1
  Li  Li17692  1  0.768641  0.775153  0.983127  1
  Li  Li17693  1  0.275153  0.731359  0.016873  1
  Li  Li17694  1  0.231359  0.224847  0.983127  1
  Li  Li17695  1  0.724847  0.268641  0.016873  1
  Li  Li17696  1  0.516873  0.268641  0.224847  1
  Li  Li17697  1  0.768641  0.983127  0.775153  1
  Li  Li17698  1  0.483127  0.731359  0.224847  1
  Li  Li17699  1  0.231359  0.016873  0.775153  1
  Li  Li17700  1  0.516873  0.731359  0.775153  1
  Li  Li17701  1  0.231359  0.983127  0.224847  1
  Li  Li17702  1  0.483127  0.268641  0.775153  1
  Li  Li17703  1  0.768641  0.016873  0.224847  1
  Li  Li17704  1  0.724847  0.016873  0.268641  1
  Li  Li17705  1  0.724847  0.983127  0.731359  1
  Li  Li17706  1  0.483127  0.775153  0.268641  1
  Li  Li17707  1  0.275153  0.016873  0.731359  1
  Li  Li17708  1  0.516873  0.224847  0.268641  1
  Li  Li17709  1  0.275153  0.983127  0.268641  1
  Li  Li17710  1  0.483127  0.224847  0.731359  1
  Li  Li17711  1  0.516873  0.775153  0.731359  1
  Li  Li17712  1  0.268641  0.724847  0.016873  1
  Li  Li17713  1  0.224847  0.231359  0.983127  1
  Li  Li17714  1  0.731359  0.275153  0.016873  1
  Li  Li17715  1  0.775153  0.768641  0.983127  1
  Li  Li17716  1  0.268641  0.275153  0.983127  1
  Li  Li17717  1  0.775153  0.231359  0.016873  1
  Li  Li17718  1  0.731359  0.724847  0.983127  1
  Li  Li17719  1  0.224847  0.768641  0.016873  1
  Li  Li17720  1  0.016873  0.768641  0.224847  1
  Li  Li17721  1  0.268641  0.483127  0.775153  1
  Li  Li17722  1  0.983127  0.231359  0.224847  1
  Li  Li17723  1  0.731359  0.516873  0.775153  1
  Li  Li17724  1  0.016873  0.231359  0.775153  1
  Li  Li17725  1  0.731359  0.483127  0.224847  1
  Li  Li17726  1  0.983127  0.768641  0.775153  1
  Li  Li17727  1  0.268641  0.516873  0.224847  1
  Li  Li17728  1  0.224847  0.516873  0.268641  1
  Li  Li17729  1  0.224847  0.483127  0.731359  1
  Li  Li17730  1  0.983127  0.275153  0.268641  1
  Li  Li17731  1  0.775153  0.516873  0.731359  1
  Li  Li17732  1  0.016873  0.724847  0.268641  1
  Li  Li17733  1  0.775153  0.483127  0.268641  1
  Li  Li17734  1  0.983127  0.724847  0.731359  1
  Li  Li17735  1  0.016873  0.275153  0.731359  1
  Li  Li17736  1  0.268641  0.224847  0.516873  1
  Li  Li17737  1  0.224847  0.731359  0.483127  1
  Li  Li17738  1  0.731359  0.775153  0.516873  1
  Li  Li17739  1  0.775153  0.268641  0.483127  1
  Li  Li17740  1  0.268641  0.775153  0.483127  1
  Li  Li17741  1  0.775153  0.731359  0.516873  1
  Li  Li17742  1  0.731359  0.224847  0.483127  1
  Li  Li17743  1  0.224847  0.268641  0.516873  1
  Li  Li17744  1  0.016873  0.268641  0.724847  1
  Li  Li17745  1  0.268641  0.983127  0.275153  1
  Li  Li17746  1  0.983127  0.731359  0.724847  1
  Li  Li17747  1  0.731359  0.016873  0.275153  1
  Li  Li17748  1  0.016873  0.731359  0.275153  1
  Li  Li17749  1  0.731359  0.983127  0.724847  1
  Li  Li17750  1  0.983127  0.268641  0.275153  1
  Li  Li17751  1  0.268641  0.016873  0.724847  1
  Li  Li17752  1  0.224847  0.016873  0.768641  1
  Li  Li17753  1  0.224847  0.983127  0.231359  1
  Li  Li17754  1  0.983127  0.775153  0.768641  1
  Li  Li17755  1  0.775153  0.016873  0.231359  1
  Li  Li17756  1  0.016873  0.224847  0.768641  1
  Li  Li17757  1  0.775153  0.983127  0.768641  1
  Li  Li17758  1  0.983127  0.224847  0.231359  1
  Li  Li17759  1  0.016873  0.775153  0.231359  1
  Li  Li17760  1  0.982468  0.740179  0.759165  1
  Li  Li17761  1  0.740179  0.017532  0.240835  1
  Li  Li17762  1  0.017532  0.259821  0.759165  1
  Li  Li17763  1  0.259821  0.982468  0.240835  1
  Li  Li17764  1  0.982468  0.259821  0.240835  1
  Li  Li17765  1  0.259821  0.017532  0.759165  1
  Li  Li17766  1  0.017532  0.740179  0.240835  1
  Li  Li17767  1  0.740179  0.982468  0.759165  1
  Li  Li17768  1  0.759165  0.982468  0.740179  1
  Li  Li17769  1  0.982468  0.240835  0.259821  1
  Li  Li17770  1  0.240835  0.017532  0.740179  1
  Li  Li17771  1  0.017532  0.759165  0.259821  1
  Li  Li17772  1  0.759165  0.017532  0.259821  1
  Li  Li17773  1  0.017532  0.240835  0.740179  1
  Li  Li17774  1  0.240835  0.982468  0.259821  1
  Li  Li17775  1  0.982468  0.759165  0.740179  1
  Li  Li17776  1  0.740179  0.759165  0.982468  1
  Li  Li17777  1  0.740179  0.240835  0.017532  1
  Li  Li17778  1  0.240835  0.259821  0.982468  1
  Li  Li17779  1  0.259821  0.759165  0.017532  1
  Li  Li17780  1  0.759165  0.740179  0.982468  1
  Li  Li17781  1  0.259821  0.240835  0.982468  1
  Li  Li17782  1  0.240835  0.740179  0.017532  1
  Li  Li17783  1  0.759165  0.259821  0.017532  1
  Li  Li17784  1  0.982468  0.240179  0.259165  1
  Li  Li17785  1  0.740179  0.517532  0.740835  1
  Li  Li17786  1  0.017532  0.759821  0.259165  1
  Li  Li17787  1  0.259821  0.482468  0.740835  1
  Li  Li17788  1  0.982468  0.759821  0.740835  1
  Li  Li17789  1  0.259821  0.517532  0.259165  1
  Li  Li17790  1  0.017532  0.240179  0.740835  1
  Li  Li17791  1  0.740179  0.482468  0.259165  1
  Li  Li17792  1  0.759165  0.482468  0.240179  1
  Li  Li17793  1  0.982468  0.740835  0.759821  1
  Li  Li17794  1  0.240835  0.517532  0.240179  1
  Li  Li17795  1  0.017532  0.259165  0.759821  1
  Li  Li17796  1  0.759165  0.517532  0.759821  1
  Li  Li17797  1  0.017532  0.740835  0.240179  1
  Li  Li17798  1  0.240835  0.482468  0.759821  1
  Li  Li17799  1  0.982468  0.259165  0.240179  1
  Li  Li17800  1  0.740179  0.259165  0.482468  1
  Li  Li17801  1  0.740179  0.740835  0.517532  1
  Li  Li17802  1  0.240835  0.759821  0.482468  1
  Li  Li17803  1  0.259821  0.259165  0.517532  1
  Li  Li17804  1  0.759165  0.240179  0.482468  1
  Li  Li17805  1  0.259821  0.740835  0.482468  1
  Li  Li17806  1  0.240835  0.240179  0.517532  1
  Li  Li17807  1  0.759165  0.759821  0.517532  1
  Li  Li17808  1  0.482468  0.740179  0.259165  1
  Li  Li17809  1  0.240179  0.017532  0.740835  1
  Li  Li17810  1  0.517532  0.259821  0.259165  1
  Li  Li17811  1  0.759821  0.982468  0.740835  1
  Li  Li17812  1  0.482468  0.259821  0.740835  1
  Li  Li17813  1  0.759821  0.017532  0.259165  1
  Li  Li17814  1  0.517532  0.740179  0.740835  1
  Li  Li17815  1  0.240179  0.982468  0.259165  1
  Li  Li17816  1  0.259165  0.982468  0.240179  1
  Li  Li17817  1  0.482468  0.240835  0.759821  1
  Li  Li17818  1  0.740835  0.017532  0.240179  1
  Li  Li17819  1  0.517532  0.759165  0.759821  1
  Li  Li17820  1  0.259165  0.017532  0.759821  1
  Li  Li17821  1  0.517532  0.240835  0.240179  1
  Li  Li17822  1  0.740835  0.982468  0.759821  1
  Li  Li17823  1  0.482468  0.759165  0.240179  1
  Li  Li17824  1  0.240179  0.759165  0.482468  1
  Li  Li17825  1  0.240179  0.240835  0.517532  1
  Li  Li17826  1  0.740835  0.259821  0.482468  1
  Li  Li17827  1  0.759821  0.759165  0.517532  1
  Li  Li17828  1  0.259165  0.740179  0.482468  1
  Li  Li17829  1  0.759821  0.240835  0.482468  1
  Li  Li17830  1  0.740835  0.740179  0.517532  1
  Li  Li17831  1  0.259165  0.259821  0.517532  1
  Li  Li17832  1  0.482468  0.240179  0.759165  1
  Li  Li17833  1  0.240179  0.517532  0.240835  1
  Li  Li17834  1  0.517532  0.759821  0.759165  1
  Li  Li17835  1  0.759821  0.482468  0.240835  1
  Li  Li17836  1  0.482468  0.759821  0.240835  1
  Li  Li17837  1  0.759821  0.517532  0.759165  1
  Li  Li17838  1  0.517532  0.240179  0.240835  1
  Li  Li17839  1  0.240179  0.482468  0.759165  1
  Li  Li17840  1  0.259165  0.482468  0.740179  1
  Li  Li17841  1  0.482468  0.740835  0.259821  1
  Li  Li17842  1  0.740835  0.517532  0.740179  1
  Li  Li17843  1  0.517532  0.259165  0.259821  1
  Li  Li17844  1  0.259165  0.517532  0.259821  1
  Li  Li17845  1  0.517532  0.740835  0.740179  1
  Li  Li17846  1  0.740835  0.482468  0.259821  1
  Li  Li17847  1  0.482468  0.259165  0.740179  1
  Li  Li17848  1  0.240179  0.259165  0.982468  1
  Li  Li17849  1  0.240179  0.740835  0.017532  1
  Li  Li17850  1  0.740835  0.759821  0.982468  1
  Li  Li17851  1  0.759821  0.259165  0.017532  1
  Li  Li17852  1  0.259165  0.240179  0.982468  1
  Li  Li17853  1  0.759821  0.740835  0.982468  1
  Li  Li17854  1  0.740835  0.240179  0.017532  1
  Li  Li17855  1  0.259165  0.759821  0.017532  1
  Li  Li17856  1  0.706775  0.789439  0.522727  1
  Li  Li17857  1  0.789439  0.293225  0.477273  1
  Li  Li17858  1  0.293225  0.210561  0.522727  1
  Li  Li17859  1  0.210561  0.706775  0.477273  1
  Li  Li17860  1  0.706775  0.210561  0.477273  1
  Li  Li17861  1  0.210561  0.293225  0.522727  1
  Li  Li17862  1  0.293225  0.789439  0.477273  1
  Li  Li17863  1  0.789439  0.706775  0.522727  1
  Li  Li17864  1  0.522727  0.706775  0.789439  1
  Li  Li17865  1  0.706775  0.477273  0.210561  1
  Li  Li17866  1  0.477273  0.293225  0.789439  1
  Li  Li17867  1  0.293225  0.522727  0.210561  1
  Li  Li17868  1  0.522727  0.293225  0.210561  1
  Li  Li17869  1  0.293225  0.477273  0.789439  1
  Li  Li17870  1  0.477273  0.706775  0.210561  1
  Li  Li17871  1  0.706775  0.522727  0.789439  1
  Li  Li17872  1  0.789439  0.522727  0.706775  1
  Li  Li17873  1  0.789439  0.477273  0.293225  1
  Li  Li17874  1  0.477273  0.210561  0.706775  1
  Li  Li17875  1  0.210561  0.522727  0.293225  1
  Li  Li17876  1  0.522727  0.789439  0.706775  1
  Li  Li17877  1  0.210561  0.477273  0.706775  1
  Li  Li17878  1  0.477273  0.789439  0.293225  1
  Li  Li17879  1  0.522727  0.210561  0.293225  1
  Li  Li17880  1  0.706775  0.289439  0.022727  1
  Li  Li17881  1  0.789439  0.793225  0.977273  1
  Li  Li17882  1  0.293225  0.710561  0.022727  1
  Li  Li17883  1  0.210561  0.206775  0.977273  1
  Li  Li17884  1  0.706775  0.710561  0.977273  1
  Li  Li17885  1  0.210561  0.793225  0.022727  1
  Li  Li17886  1  0.293225  0.289439  0.977273  1
  Li  Li17887  1  0.789439  0.206775  0.022727  1
  Li  Li17888  1  0.522727  0.206775  0.289439  1
  Li  Li17889  1  0.706775  0.977273  0.710561  1
  Li  Li17890  1  0.477273  0.793225  0.289439  1
  Li  Li17891  1  0.293225  0.022727  0.710561  1
  Li  Li17892  1  0.522727  0.793225  0.710561  1
  Li  Li17893  1  0.293225  0.977273  0.289439  1
  Li  Li17894  1  0.477273  0.206775  0.710561  1
  Li  Li17895  1  0.706775  0.022727  0.289439  1
  Li  Li17896  1  0.789439  0.022727  0.206775  1
  Li  Li17897  1  0.789439  0.977273  0.793225  1
  Li  Li17898  1  0.477273  0.710561  0.206775  1
  Li  Li17899  1  0.210561  0.022727  0.793225  1
  Li  Li17900  1  0.522727  0.289439  0.206775  1
  Li  Li17901  1  0.210561  0.977273  0.206775  1
  Li  Li17902  1  0.477273  0.289439  0.793225  1
  Li  Li17903  1  0.522727  0.710561  0.793225  1
  Li  Li17904  1  0.206775  0.789439  0.022727  1
  Li  Li17905  1  0.289439  0.293225  0.977273  1
  Li  Li17906  1  0.793225  0.210561  0.022727  1
  Li  Li17907  1  0.710561  0.706775  0.977273  1
  Li  Li17908  1  0.206775  0.210561  0.977273  1
  Li  Li17909  1  0.710561  0.293225  0.022727  1
  Li  Li17910  1  0.793225  0.789439  0.977273  1
  Li  Li17911  1  0.289439  0.706775  0.022727  1
  Li  Li17912  1  0.022727  0.706775  0.289439  1
  Li  Li17913  1  0.206775  0.477273  0.710561  1
  Li  Li17914  1  0.977273  0.293225  0.289439  1
  Li  Li17915  1  0.793225  0.522727  0.710561  1
  Li  Li17916  1  0.022727  0.293225  0.710561  1
  Li  Li17917  1  0.793225  0.477273  0.289439  1
  Li  Li17918  1  0.977273  0.706775  0.710561  1
  Li  Li17919  1  0.206775  0.522727  0.289439  1
  Li  Li17920  1  0.289439  0.522727  0.206775  1
  Li  Li17921  1  0.289439  0.477273  0.793225  1
  Li  Li17922  1  0.977273  0.210561  0.206775  1
  Li  Li17923  1  0.710561  0.522727  0.793225  1
  Li  Li17924  1  0.022727  0.789439  0.206775  1
  Li  Li17925  1  0.710561  0.477273  0.206775  1
  Li  Li17926  1  0.977273  0.789439  0.793225  1
  Li  Li17927  1  0.022727  0.210561  0.793225  1
  Li  Li17928  1  0.206775  0.289439  0.522727  1
  Li  Li17929  1  0.289439  0.793225  0.477273  1
  Li  Li17930  1  0.793225  0.710561  0.522727  1
  Li  Li17931  1  0.710561  0.206775  0.477273  1
  Li  Li17932  1  0.206775  0.710561  0.477273  1
  Li  Li17933  1  0.710561  0.793225  0.522727  1
  Li  Li17934  1  0.793225  0.289439  0.477273  1
  Li  Li17935  1  0.289439  0.206775  0.522727  1
  Li  Li17936  1  0.022727  0.206775  0.789439  1
  Li  Li17937  1  0.206775  0.977273  0.210561  1
  Li  Li17938  1  0.977273  0.793225  0.789439  1
  Li  Li17939  1  0.793225  0.022727  0.210561  1
  Li  Li17940  1  0.022727  0.793225  0.210561  1
  Li  Li17941  1  0.793225  0.977273  0.789439  1
  Li  Li17942  1  0.977273  0.206775  0.210561  1
  Li  Li17943  1  0.206775  0.022727  0.789439  1
  Li  Li17944  1  0.289439  0.022727  0.706775  1
  Li  Li17945  1  0.289439  0.977273  0.293225  1
  Li  Li17946  1  0.977273  0.710561  0.706775  1
  Li  Li17947  1  0.710561  0.022727  0.293225  1
  Li  Li17948  1  0.022727  0.289439  0.706775  1
  Li  Li17949  1  0.710561  0.977273  0.706775  1
  Li  Li17950  1  0.977273  0.289439  0.293225  1
  Li  Li17951  1  0.022727  0.710561  0.293225  1
  Li  Li17952  1  0.769036  0.779826  0.985445  1
  Li  Li17953  1  0.779826  0.230964  0.014555  1
  Li  Li17954  1  0.230964  0.220174  0.985445  1
  Li  Li17955  1  0.220174  0.769036  0.014555  1
  Li  Li17956  1  0.769036  0.220174  0.014555  1
  Li  Li17957  1  0.220174  0.230964  0.985445  1
  Li  Li17958  1  0.230964  0.779826  0.014555  1
  Li  Li17959  1  0.779826  0.769036  0.985445  1
  Li  Li17960  1  0.985445  0.769036  0.779826  1
  Li  Li17961  1  0.769036  0.014555  0.220174  1
  Li  Li17962  1  0.014555  0.230964  0.779826  1
  Li  Li17963  1  0.230964  0.985445  0.220174  1
  Li  Li17964  1  0.985445  0.230964  0.220174  1
  Li  Li17965  1  0.230964  0.014555  0.779826  1
  Li  Li17966  1  0.014555  0.769036  0.220174  1
  Li  Li17967  1  0.769036  0.985445  0.779826  1
  Li  Li17968  1  0.779826  0.985445  0.769036  1
  Li  Li17969  1  0.779826  0.014555  0.230964  1
  Li  Li17970  1  0.014555  0.220174  0.769036  1
  Li  Li17971  1  0.220174  0.985445  0.230964  1
  Li  Li17972  1  0.985445  0.779826  0.769036  1
  Li  Li17973  1  0.220174  0.014555  0.769036  1
  Li  Li17974  1  0.014555  0.779826  0.230964  1
  Li  Li17975  1  0.985445  0.220174  0.230964  1
  Li  Li17976  1  0.769036  0.279826  0.485445  1
  Li  Li17977  1  0.779826  0.730964  0.514555  1
  Li  Li17978  1  0.230964  0.720174  0.485445  1
  Li  Li17979  1  0.220174  0.269036  0.514555  1
  Li  Li17980  1  0.769036  0.720174  0.514555  1
  Li  Li17981  1  0.220174  0.730964  0.485445  1
  Li  Li17982  1  0.230964  0.279826  0.514555  1
  Li  Li17983  1  0.779826  0.269036  0.485445  1
  Li  Li17984  1  0.985445  0.269036  0.279826  1
  Li  Li17985  1  0.769036  0.514555  0.720174  1
  Li  Li17986  1  0.014555  0.730964  0.279826  1
  Li  Li17987  1  0.230964  0.485445  0.720174  1
  Li  Li17988  1  0.985445  0.730964  0.720174  1
  Li  Li17989  1  0.230964  0.514555  0.279826  1
  Li  Li17990  1  0.014555  0.269036  0.720174  1
  Li  Li17991  1  0.769036  0.485445  0.279826  1
  Li  Li17992  1  0.779826  0.485445  0.269036  1
  Li  Li17993  1  0.779826  0.514555  0.730964  1
  Li  Li17994  1  0.014555  0.720174  0.269036  1
  Li  Li17995  1  0.220174  0.485445  0.730964  1
  Li  Li17996  1  0.985445  0.279826  0.269036  1
  Li  Li17997  1  0.220174  0.514555  0.269036  1
  Li  Li17998  1  0.014555  0.279826  0.730964  1
  Li  Li17999  1  0.985445  0.720174  0.730964  1
  Li  Li18000  1  0.269036  0.779826  0.485445  1
  Li  Li18001  1  0.279826  0.230964  0.514555  1
  Li  Li18002  1  0.730964  0.220174  0.485445  1
  Li  Li18003  1  0.720174  0.769036  0.514555  1
  Li  Li18004  1  0.269036  0.220174  0.514555  1
  Li  Li18005  1  0.720174  0.230964  0.485445  1
  Li  Li18006  1  0.730964  0.779826  0.514555  1
  Li  Li18007  1  0.279826  0.769036  0.485445  1
  Li  Li18008  1  0.485445  0.769036  0.279826  1
  Li  Li18009  1  0.269036  0.014555  0.720174  1
  Li  Li18010  1  0.514555  0.230964  0.279826  1
  Li  Li18011  1  0.730964  0.985445  0.720174  1
  Li  Li18012  1  0.485445  0.230964  0.720174  1
  Li  Li18013  1  0.730964  0.014555  0.279826  1
  Li  Li18014  1  0.514555  0.769036  0.720174  1
  Li  Li18015  1  0.269036  0.985445  0.279826  1
  Li  Li18016  1  0.279826  0.985445  0.269036  1
  Li  Li18017  1  0.279826  0.014555  0.730964  1
  Li  Li18018  1  0.514555  0.220174  0.269036  1
  Li  Li18019  1  0.720174  0.985445  0.730964  1
  Li  Li18020  1  0.485445  0.779826  0.269036  1
  Li  Li18021  1  0.720174  0.014555  0.269036  1
  Li  Li18022  1  0.514555  0.779826  0.730964  1
  Li  Li18023  1  0.485445  0.220174  0.730964  1
  Li  Li18024  1  0.269036  0.279826  0.985445  1
  Li  Li18025  1  0.279826  0.730964  0.014555  1
  Li  Li18026  1  0.730964  0.720174  0.985445  1
  Li  Li18027  1  0.720174  0.269036  0.014555  1
  Li  Li18028  1  0.269036  0.720174  0.014555  1
  Li  Li18029  1  0.720174  0.730964  0.985445  1
  Li  Li18030  1  0.730964  0.279826  0.014555  1
  Li  Li18031  1  0.279826  0.269036  0.985445  1
  Li  Li18032  1  0.485445  0.269036  0.779826  1
  Li  Li18033  1  0.269036  0.514555  0.220174  1
  Li  Li18034  1  0.514555  0.730964  0.779826  1
  Li  Li18035  1  0.730964  0.485445  0.220174  1
  Li  Li18036  1  0.485445  0.730964  0.220174  1
  Li  Li18037  1  0.730964  0.514555  0.779826  1
  Li  Li18038  1  0.514555  0.269036  0.220174  1
  Li  Li18039  1  0.269036  0.485445  0.779826  1
  Li  Li18040  1  0.279826  0.485445  0.769036  1
  Li  Li18041  1  0.279826  0.514555  0.230964  1
  Li  Li18042  1  0.514555  0.720174  0.769036  1
  Li  Li18043  1  0.720174  0.485445  0.230964  1
  Li  Li18044  1  0.485445  0.279826  0.769036  1
  Li  Li18045  1  0.720174  0.514555  0.769036  1
  Li  Li18046  1  0.514555  0.279826  0.230964  1
  Li  Li18047  1  0.485445  0.720174  0.230964  1
  Li  Li18048  1  0.687709  0.538634  0.802088  1
  Li  Li18049  1  0.538634  0.312291  0.197912  1
  Li  Li18050  1  0.312291  0.461366  0.802088  1
  Li  Li18051  1  0.461366  0.687709  0.197912  1
  Li  Li18052  1  0.687709  0.461366  0.197912  1
  Li  Li18053  1  0.461366  0.312291  0.802088  1
  Li  Li18054  1  0.312291  0.538634  0.197912  1
  Li  Li18055  1  0.538634  0.687709  0.802088  1
  Li  Li18056  1  0.802088  0.687709  0.538634  1
  Li  Li18057  1  0.687709  0.197912  0.461366  1
  Li  Li18058  1  0.197912  0.312291  0.538634  1
  Li  Li18059  1  0.312291  0.802088  0.461366  1
  Li  Li18060  1  0.802088  0.312291  0.461366  1
  Li  Li18061  1  0.312291  0.197912  0.538634  1
  Li  Li18062  1  0.197912  0.687709  0.461366  1
  Li  Li18063  1  0.687709  0.802088  0.538634  1
  Li  Li18064  1  0.538634  0.802088  0.687709  1
  Li  Li18065  1  0.538634  0.197912  0.312291  1
  Li  Li18066  1  0.197912  0.461366  0.687709  1
  Li  Li18067  1  0.461366  0.802088  0.312291  1
  Li  Li18068  1  0.802088  0.538634  0.687709  1
  Li  Li18069  1  0.461366  0.197912  0.687709  1
  Li  Li18070  1  0.197912  0.538634  0.312291  1
  Li  Li18071  1  0.802088  0.461366  0.312291  1
  Li  Li18072  1  0.687709  0.038634  0.302088  1
  Li  Li18073  1  0.538634  0.812291  0.697912  1
  Li  Li18074  1  0.312291  0.961366  0.302088  1
  Li  Li18075  1  0.461366  0.187709  0.697912  1
  Li  Li18076  1  0.687709  0.961366  0.697912  1
  Li  Li18077  1  0.461366  0.812291  0.302088  1
  Li  Li18078  1  0.312291  0.038634  0.697912  1
  Li  Li18079  1  0.538634  0.187709  0.302088  1
  Li  Li18080  1  0.802088  0.187709  0.038634  1
  Li  Li18081  1  0.687709  0.697912  0.961366  1
  Li  Li18082  1  0.197912  0.812291  0.038634  1
  Li  Li18083  1  0.312291  0.302088  0.961366  1
  Li  Li18084  1  0.802088  0.812291  0.961366  1
  Li  Li18085  1  0.312291  0.697912  0.038634  1
  Li  Li18086  1  0.197912  0.187709  0.961366  1
  Li  Li18087  1  0.687709  0.302088  0.038634  1
  Li  Li18088  1  0.538634  0.302088  0.187709  1
  Li  Li18089  1  0.538634  0.697912  0.812291  1
  Li  Li18090  1  0.197912  0.961366  0.187709  1
  Li  Li18091  1  0.461366  0.302088  0.812291  1
  Li  Li18092  1  0.802088  0.038634  0.187709  1
  Li  Li18093  1  0.461366  0.697912  0.187709  1
  Li  Li18094  1  0.197912  0.038634  0.812291  1
  Li  Li18095  1  0.802088  0.961366  0.812291  1
  Li  Li18096  1  0.187709  0.538634  0.302088  1
  Li  Li18097  1  0.038634  0.312291  0.697912  1
  Li  Li18098  1  0.812291  0.461366  0.302088  1
  Li  Li18099  1  0.961366  0.687709  0.697912  1
  Li  Li18100  1  0.187709  0.461366  0.697912  1
  Li  Li18101  1  0.961366  0.312291  0.302088  1
  Li  Li18102  1  0.812291  0.538634  0.697912  1
  Li  Li18103  1  0.038634  0.687709  0.302088  1
  Li  Li18104  1  0.302088  0.687709  0.038634  1
  Li  Li18105  1  0.187709  0.197912  0.961366  1
  Li  Li18106  1  0.697912  0.312291  0.038634  1
  Li  Li18107  1  0.812291  0.802088  0.961366  1
  Li  Li18108  1  0.302088  0.312291  0.961366  1
  Li  Li18109  1  0.812291  0.197912  0.038634  1
  Li  Li18110  1  0.697912  0.687709  0.961366  1
  Li  Li18111  1  0.187709  0.802088  0.038634  1
  Li  Li18112  1  0.038634  0.802088  0.187709  1
  Li  Li18113  1  0.038634  0.197912  0.812291  1
  Li  Li18114  1  0.697912  0.461366  0.187709  1
  Li  Li18115  1  0.961366  0.802088  0.812291  1
  Li  Li18116  1  0.302088  0.538634  0.187709  1
  Li  Li18117  1  0.961366  0.197912  0.187709  1
  Li  Li18118  1  0.697912  0.538634  0.812291  1
  Li  Li18119  1  0.302088  0.461366  0.812291  1
  Li  Li18120  1  0.187709  0.038634  0.802088  1
  Li  Li18121  1  0.038634  0.812291  0.197912  1
  Li  Li18122  1  0.812291  0.961366  0.802088  1
  Li  Li18123  1  0.961366  0.187709  0.197912  1
  Li  Li18124  1  0.187709  0.961366  0.197912  1
  Li  Li18125  1  0.961366  0.812291  0.802088  1
  Li  Li18126  1  0.812291  0.038634  0.197912  1
  Li  Li18127  1  0.038634  0.187709  0.802088  1
  Li  Li18128  1  0.302088  0.187709  0.538634  1
  Li  Li18129  1  0.187709  0.697912  0.461366  1
  Li  Li18130  1  0.697912  0.812291  0.538634  1
  Li  Li18131  1  0.812291  0.302088  0.461366  1
  Li  Li18132  1  0.302088  0.812291  0.461366  1
  Li  Li18133  1  0.812291  0.697912  0.538634  1
  Li  Li18134  1  0.697912  0.187709  0.461366  1
  Li  Li18135  1  0.187709  0.302088  0.538634  1
  Li  Li18136  1  0.038634  0.302088  0.687709  1
  Li  Li18137  1  0.038634  0.697912  0.312291  1
  Li  Li18138  1  0.697912  0.961366  0.687709  1
  Li  Li18139  1  0.961366  0.302088  0.312291  1
  Li  Li18140  1  0.302088  0.038634  0.687709  1
  Li  Li18141  1  0.961366  0.697912  0.687709  1
  Li  Li18142  1  0.697912  0.038634  0.312291  1
  Li  Li18143  1  0.302088  0.961366  0.312291  1
  Li  Li18144  1  0.704792  0.989057  0.686744  1
  Li  Li18145  1  0.989057  0.295208  0.313256  1
  Li  Li18146  1  0.295208  0.010943  0.686744  1
  Li  Li18147  1  0.010943  0.704792  0.313256  1
  Li  Li18148  1  0.704792  0.010943  0.313256  1
  Li  Li18149  1  0.010943  0.295208  0.686744  1
  Li  Li18150  1  0.295208  0.989057  0.313256  1
  Li  Li18151  1  0.989057  0.704792  0.686744  1
  Li  Li18152  1  0.686744  0.704792  0.989057  1
  Li  Li18153  1  0.704792  0.313256  0.010943  1
  Li  Li18154  1  0.313256  0.295208  0.989057  1
  Li  Li18155  1  0.295208  0.686744  0.010943  1
  Li  Li18156  1  0.686744  0.295208  0.010943  1
  Li  Li18157  1  0.295208  0.313256  0.989057  1
  Li  Li18158  1  0.313256  0.704792  0.010943  1
  Li  Li18159  1  0.704792  0.686744  0.989057  1
  Li  Li18160  1  0.989057  0.686744  0.704792  1
  Li  Li18161  1  0.989057  0.313256  0.295208  1
  Li  Li18162  1  0.313256  0.010943  0.704792  1
  Li  Li18163  1  0.010943  0.686744  0.295208  1
  Li  Li18164  1  0.686744  0.989057  0.704792  1
  Li  Li18165  1  0.010943  0.313256  0.704792  1
  Li  Li18166  1  0.313256  0.989057  0.295208  1
  Li  Li18167  1  0.686744  0.010943  0.295208  1
  Li  Li18168  1  0.704792  0.489057  0.186744  1
  Li  Li18169  1  0.989057  0.795208  0.813256  1
  Li  Li18170  1  0.295208  0.510943  0.186744  1
  Li  Li18171  1  0.010943  0.204792  0.813256  1
  Li  Li18172  1  0.704792  0.510943  0.813256  1
  Li  Li18173  1  0.010943  0.795208  0.186744  1
  Li  Li18174  1  0.295208  0.489057  0.813256  1
  Li  Li18175  1  0.989057  0.204792  0.186744  1
  Li  Li18176  1  0.686744  0.204792  0.489057  1
  Li  Li18177  1  0.704792  0.813256  0.510943  1
  Li  Li18178  1  0.313256  0.795208  0.489057  1
  Li  Li18179  1  0.295208  0.186744  0.510943  1
  Li  Li18180  1  0.686744  0.795208  0.510943  1
  Li  Li18181  1  0.295208  0.813256  0.489057  1
  Li  Li18182  1  0.313256  0.204792  0.510943  1
  Li  Li18183  1  0.704792  0.186744  0.489057  1
  Li  Li18184  1  0.989057  0.186744  0.204792  1
  Li  Li18185  1  0.989057  0.813256  0.795208  1
  Li  Li18186  1  0.313256  0.510943  0.204792  1
  Li  Li18187  1  0.010943  0.186744  0.795208  1
  Li  Li18188  1  0.686744  0.489057  0.204792  1
  Li  Li18189  1  0.010943  0.813256  0.204792  1
  Li  Li18190  1  0.313256  0.489057  0.795208  1
  Li  Li18191  1  0.686744  0.510943  0.795208  1
  Li  Li18192  1  0.204792  0.989057  0.186744  1
  Li  Li18193  1  0.489057  0.295208  0.813256  1
  Li  Li18194  1  0.795208  0.010943  0.186744  1
  Li  Li18195  1  0.510943  0.704792  0.813256  1
  Li  Li18196  1  0.204792  0.010943  0.813256  1
  Li  Li18197  1  0.510943  0.295208  0.186744  1
  Li  Li18198  1  0.795208  0.989057  0.813256  1
  Li  Li18199  1  0.489057  0.704792  0.186744  1
  Li  Li18200  1  0.186744  0.704792  0.489057  1
  Li  Li18201  1  0.204792  0.313256  0.510943  1
  Li  Li18202  1  0.813256  0.295208  0.489057  1
  Li  Li18203  1  0.795208  0.686744  0.510943  1
  Li  Li18204  1  0.186744  0.295208  0.510943  1
  Li  Li18205  1  0.795208  0.313256  0.489057  1
  Li  Li18206  1  0.813256  0.704792  0.510943  1
  Li  Li18207  1  0.204792  0.686744  0.489057  1
  Li  Li18208  1  0.489057  0.686744  0.204792  1
  Li  Li18209  1  0.489057  0.313256  0.795208  1
  Li  Li18210  1  0.813256  0.010943  0.204792  1
  Li  Li18211  1  0.510943  0.686744  0.795208  1
  Li  Li18212  1  0.186744  0.989057  0.204792  1
  Li  Li18213  1  0.510943  0.313256  0.204792  1
  Li  Li18214  1  0.813256  0.989057  0.795208  1
  Li  Li18215  1  0.186744  0.010943  0.795208  1
  Li  Li18216  1  0.204792  0.489057  0.686744  1
  Li  Li18217  1  0.489057  0.795208  0.313256  1
  Li  Li18218  1  0.795208  0.510943  0.686744  1
  Li  Li18219  1  0.510943  0.204792  0.313256  1
  Li  Li18220  1  0.204792  0.510943  0.313256  1
  Li  Li18221  1  0.510943  0.795208  0.686744  1
  Li  Li18222  1  0.795208  0.489057  0.313256  1
  Li  Li18223  1  0.489057  0.204792  0.686744  1
  Li  Li18224  1  0.186744  0.204792  0.989057  1
  Li  Li18225  1  0.204792  0.813256  0.010943  1
  Li  Li18226  1  0.813256  0.795208  0.989057  1
  Li  Li18227  1  0.795208  0.186744  0.010943  1
  Li  Li18228  1  0.186744  0.795208  0.010943  1
  Li  Li18229  1  0.795208  0.813256  0.989057  1
  Li  Li18230  1  0.813256  0.204792  0.010943  1
  Li  Li18231  1  0.204792  0.186744  0.989057  1
  Li  Li18232  1  0.489057  0.186744  0.704792  1
  Li  Li18233  1  0.489057  0.813256  0.295208  1
  Li  Li18234  1  0.813256  0.510943  0.704792  1
  Li  Li18235  1  0.510943  0.186744  0.295208  1
  Li  Li18236  1  0.186744  0.489057  0.704792  1
  Li  Li18237  1  0.510943  0.813256  0.704792  1
  Li  Li18238  1  0.813256  0.489057  0.295208  1
  Li  Li18239  1  0.186744  0.510943  0.295208  1
  Li  Li18240  1  0.659846  0.535176  0.810872  1
  Li  Li18241  1  0.535176  0.340154  0.189128  1
  Li  Li18242  1  0.340154  0.464824  0.810872  1
  Li  Li18243  1  0.464824  0.659846  0.189128  1
  Li  Li18244  1  0.659846  0.464824  0.189128  1
  Li  Li18245  1  0.464824  0.340154  0.810872  1
  Li  Li18246  1  0.340154  0.535176  0.189128  1
  Li  Li18247  1  0.535176  0.659846  0.810872  1
  Li  Li18248  1  0.810872  0.659846  0.535176  1
  Li  Li18249  1  0.659846  0.189128  0.464824  1
  Li  Li18250  1  0.189128  0.340154  0.535176  1
  Li  Li18251  1  0.340154  0.810872  0.464824  1
  Li  Li18252  1  0.810872  0.340154  0.464824  1
  Li  Li18253  1  0.340154  0.189128  0.535176  1
  Li  Li18254  1  0.189128  0.659846  0.464824  1
  Li  Li18255  1  0.659846  0.810872  0.535176  1
  Li  Li18256  1  0.535176  0.810872  0.659846  1
  Li  Li18257  1  0.535176  0.189128  0.340154  1
  Li  Li18258  1  0.189128  0.464824  0.659846  1
  Li  Li18259  1  0.464824  0.810872  0.340154  1
  Li  Li18260  1  0.810872  0.535176  0.659846  1
  Li  Li18261  1  0.464824  0.189128  0.659846  1
  Li  Li18262  1  0.189128  0.535176  0.340154  1
  Li  Li18263  1  0.810872  0.464824  0.340154  1
  Li  Li18264  1  0.659846  0.035176  0.310872  1
  Li  Li18265  1  0.535176  0.840154  0.689128  1
  Li  Li18266  1  0.340154  0.964824  0.310872  1
  Li  Li18267  1  0.464824  0.159846  0.689128  1
  Li  Li18268  1  0.659846  0.964824  0.689128  1
  Li  Li18269  1  0.464824  0.840154  0.310872  1
  Li  Li18270  1  0.340154  0.035176  0.689128  1
  Li  Li18271  1  0.535176  0.159846  0.310872  1
  Li  Li18272  1  0.810872  0.159846  0.035176  1
  Li  Li18273  1  0.659846  0.689128  0.964824  1
  Li  Li18274  1  0.189128  0.840154  0.035176  1
  Li  Li18275  1  0.340154  0.310872  0.964824  1
  Li  Li18276  1  0.810872  0.840154  0.964824  1
  Li  Li18277  1  0.340154  0.689128  0.035176  1
  Li  Li18278  1  0.189128  0.159846  0.964824  1
  Li  Li18279  1  0.659846  0.310872  0.035176  1
  Li  Li18280  1  0.535176  0.310872  0.159846  1
  Li  Li18281  1  0.535176  0.689128  0.840154  1
  Li  Li18282  1  0.189128  0.964824  0.159846  1
  Li  Li18283  1  0.464824  0.310872  0.840154  1
  Li  Li18284  1  0.810872  0.035176  0.159846  1
  Li  Li18285  1  0.464824  0.689128  0.159846  1
  Li  Li18286  1  0.189128  0.035176  0.840154  1
  Li  Li18287  1  0.810872  0.964824  0.840154  1
  Li  Li18288  1  0.159846  0.535176  0.310872  1
  Li  Li18289  1  0.035176  0.340154  0.689128  1
  Li  Li18290  1  0.840154  0.464824  0.310872  1
  Li  Li18291  1  0.964824  0.659846  0.689128  1
  Li  Li18292  1  0.159846  0.464824  0.689128  1
  Li  Li18293  1  0.964824  0.340154  0.310872  1
  Li  Li18294  1  0.840154  0.535176  0.689128  1
  Li  Li18295  1  0.035176  0.659846  0.310872  1
  Li  Li18296  1  0.310872  0.659846  0.035176  1
  Li  Li18297  1  0.159846  0.189128  0.964824  1
  Li  Li18298  1  0.689128  0.340154  0.035176  1
  Li  Li18299  1  0.840154  0.810872  0.964824  1
  Li  Li18300  1  0.310872  0.340154  0.964824  1
  Li  Li18301  1  0.840154  0.189128  0.035176  1
  Li  Li18302  1  0.689128  0.659846  0.964824  1
  Li  Li18303  1  0.159846  0.810872  0.035176  1
  Li  Li18304  1  0.035176  0.810872  0.159846  1
  Li  Li18305  1  0.035176  0.189128  0.840154  1
  Li  Li18306  1  0.689128  0.464824  0.159846  1
  Li  Li18307  1  0.964824  0.810872  0.840154  1
  Li  Li18308  1  0.310872  0.535176  0.159846  1
  Li  Li18309  1  0.964824  0.189128  0.159846  1
  Li  Li18310  1  0.689128  0.535176  0.840154  1
  Li  Li18311  1  0.310872  0.464824  0.840154  1
  Li  Li18312  1  0.159846  0.035176  0.810872  1
  Li  Li18313  1  0.035176  0.840154  0.189128  1
  Li  Li18314  1  0.840154  0.964824  0.810872  1
  Li  Li18315  1  0.964824  0.159846  0.189128  1
  Li  Li18316  1  0.159846  0.964824  0.189128  1
  Li  Li18317  1  0.964824  0.840154  0.810872  1
  Li  Li18318  1  0.840154  0.035176  0.189128  1
  Li  Li18319  1  0.035176  0.159846  0.810872  1
  Li  Li18320  1  0.310872  0.159846  0.535176  1
  Li  Li18321  1  0.159846  0.689128  0.464824  1
  Li  Li18322  1  0.689128  0.840154  0.535176  1
  Li  Li18323  1  0.840154  0.310872  0.464824  1
  Li  Li18324  1  0.310872  0.840154  0.464824  1
  Li  Li18325  1  0.840154  0.689128  0.535176  1
  Li  Li18326  1  0.689128  0.159846  0.464824  1
  Li  Li18327  1  0.159846  0.310872  0.535176  1
  Li  Li18328  1  0.035176  0.310872  0.659846  1
  Li  Li18329  1  0.035176  0.689128  0.340154  1
  Li  Li18330  1  0.689128  0.964824  0.659846  1
  Li  Li18331  1  0.964824  0.310872  0.340154  1
  Li  Li18332  1  0.310872  0.035176  0.659846  1
  Li  Li18333  1  0.964824  0.689128  0.659846  1
  Li  Li18334  1  0.689128  0.035176  0.340154  1
  Li  Li18335  1  0.310872  0.964824  0.340154  1
  Li  Li18336  1  0.726449  0.919080  0.581390  1
  Li  Li18337  1  0.919080  0.273551  0.418610  1
  Li  Li18338  1  0.273551  0.080920  0.581390  1
  Li  Li18339  1  0.080920  0.726449  0.418610  1
  Li  Li18340  1  0.726449  0.080920  0.418610  1
  Li  Li18341  1  0.080920  0.273551  0.581390  1
  Li  Li18342  1  0.273551  0.919080  0.418610  1
  Li  Li18343  1  0.919080  0.726449  0.581390  1
  Li  Li18344  1  0.581390  0.726449  0.919080  1
  Li  Li18345  1  0.726449  0.418610  0.080920  1
  Li  Li18346  1  0.418610  0.273551  0.919080  1
  Li  Li18347  1  0.273551  0.581390  0.080920  1
  Li  Li18348  1  0.581390  0.273551  0.080920  1
  Li  Li18349  1  0.273551  0.418610  0.919080  1
  Li  Li18350  1  0.418610  0.726449  0.080920  1
  Li  Li18351  1  0.726449  0.581390  0.919080  1
  Li  Li18352  1  0.919080  0.581390  0.726449  1
  Li  Li18353  1  0.919080  0.418610  0.273551  1
  Li  Li18354  1  0.418610  0.080920  0.726449  1
  Li  Li18355  1  0.080920  0.581390  0.273551  1
  Li  Li18356  1  0.581390  0.919080  0.726449  1
  Li  Li18357  1  0.080920  0.418610  0.726449  1
  Li  Li18358  1  0.418610  0.919080  0.273551  1
  Li  Li18359  1  0.581390  0.080920  0.273551  1
  Li  Li18360  1  0.726449  0.419080  0.081390  1
  Li  Li18361  1  0.919080  0.773551  0.918610  1
  Li  Li18362  1  0.273551  0.580920  0.081390  1
  Li  Li18363  1  0.080920  0.226449  0.918610  1
  Li  Li18364  1  0.726449  0.580920  0.918610  1
  Li  Li18365  1  0.080920  0.773551  0.081390  1
  Li  Li18366  1  0.273551  0.419080  0.918610  1
  Li  Li18367  1  0.919080  0.226449  0.081390  1
  Li  Li18368  1  0.581390  0.226449  0.419080  1
  Li  Li18369  1  0.726449  0.918610  0.580920  1
  Li  Li18370  1  0.418610  0.773551  0.419080  1
  Li  Li18371  1  0.273551  0.081390  0.580920  1
  Li  Li18372  1  0.581390  0.773551  0.580920  1
  Li  Li18373  1  0.273551  0.918610  0.419080  1
  Li  Li18374  1  0.418610  0.226449  0.580920  1
  Li  Li18375  1  0.726449  0.081390  0.419080  1
  Li  Li18376  1  0.919080  0.081390  0.226449  1
  Li  Li18377  1  0.919080  0.918610  0.773551  1
  Li  Li18378  1  0.418610  0.580920  0.226449  1
  Li  Li18379  1  0.080920  0.081390  0.773551  1
  Li  Li18380  1  0.581390  0.419080  0.226449  1
  Li  Li18381  1  0.080920  0.918610  0.226449  1
  Li  Li18382  1  0.418610  0.419080  0.773551  1
  Li  Li18383  1  0.581390  0.580920  0.773551  1
  Li  Li18384  1  0.226449  0.919080  0.081390  1
  Li  Li18385  1  0.419080  0.273551  0.918610  1
  Li  Li18386  1  0.773551  0.080920  0.081390  1
  Li  Li18387  1  0.580920  0.726449  0.918610  1
  Li  Li18388  1  0.226449  0.080920  0.918610  1
  Li  Li18389  1  0.580920  0.273551  0.081390  1
  Li  Li18390  1  0.773551  0.919080  0.918610  1
  Li  Li18391  1  0.419080  0.726449  0.081390  1
  Li  Li18392  1  0.081390  0.726449  0.419080  1
  Li  Li18393  1  0.226449  0.418610  0.580920  1
  Li  Li18394  1  0.918610  0.273551  0.419080  1
  Li  Li18395  1  0.773551  0.581390  0.580920  1
  Li  Li18396  1  0.081390  0.273551  0.580920  1
  Li  Li18397  1  0.773551  0.418610  0.419080  1
  Li  Li18398  1  0.918610  0.726449  0.580920  1
  Li  Li18399  1  0.226449  0.581390  0.419080  1
  Li  Li18400  1  0.419080  0.581390  0.226449  1
  Li  Li18401  1  0.419080  0.418610  0.773551  1
  Li  Li18402  1  0.918610  0.080920  0.226449  1
  Li  Li18403  1  0.580920  0.581390  0.773551  1
  Li  Li18404  1  0.081390  0.919080  0.226449  1
  Li  Li18405  1  0.580920  0.418610  0.226449  1
  Li  Li18406  1  0.918610  0.919080  0.773551  1
  Li  Li18407  1  0.081390  0.080920  0.773551  1
  Li  Li18408  1  0.226449  0.419080  0.581390  1
  Li  Li18409  1  0.419080  0.773551  0.418610  1
  Li  Li18410  1  0.773551  0.580920  0.581390  1
  Li  Li18411  1  0.580920  0.226449  0.418610  1
  Li  Li18412  1  0.226449  0.580920  0.418610  1
  Li  Li18413  1  0.580920  0.773551  0.581390  1
  Li  Li18414  1  0.773551  0.419080  0.418610  1
  Li  Li18415  1  0.419080  0.226449  0.581390  1
  Li  Li18416  1  0.081390  0.226449  0.919080  1
  Li  Li18417  1  0.226449  0.918610  0.080920  1
  Li  Li18418  1  0.918610  0.773551  0.919080  1
  Li  Li18419  1  0.773551  0.081390  0.080920  1
  Li  Li18420  1  0.081390  0.773551  0.080920  1
  Li  Li18421  1  0.773551  0.918610  0.919080  1
  Li  Li18422  1  0.918610  0.226449  0.080920  1
  Li  Li18423  1  0.226449  0.081390  0.919080  1
  Li  Li18424  1  0.419080  0.081390  0.726449  1
  Li  Li18425  1  0.419080  0.918610  0.273551  1
  Li  Li18426  1  0.918610  0.580920  0.726449  1
  Li  Li18427  1  0.580920  0.081390  0.273551  1
  Li  Li18428  1  0.081390  0.419080  0.726449  1
  Li  Li18429  1  0.580920  0.918610  0.726449  1
  Li  Li18430  1  0.918610  0.419080  0.273551  1
  Li  Li18431  1  0.081390  0.580920  0.273551  1
