# generated using pymatgen
data_Li6PS5Cl
_symmetry_space_group_name_H-M   'P 1'
_cell_length_a   20.31231100
_cell_length_b   20.31231100
_cell_length_c   20.31231100
_cell_angle_alpha   90.00000000
_cell_angle_beta   90.00000000
_cell_angle_gamma   90.00000000
_symmetry_Int_Tables_number   1
_chemical_formula_structural   Li6PS5Cl
_chemical_formula_sum   'Li192 P32 S160 Cl32'
_cell_volume   8380.65595188
_cell_formula_units_Z   32
loop_
 _symmetry_equiv_pos_site_id
 _symmetry_equiv_pos_as_xyz
  1  'x, y, z'
loop_
 _atom_site_type_symbol
 _atom_site_label
 _atom_site_symmetry_multiplicity
 _atom_site_fract_x
 _atom_site_fract_y
 _atom_site_fract_z
 _atom_site_occupancy
  Li  Li0  1  0.911235  0.980010  0.916723  1
  Li  Li1  1  0.990408  0.086033  0.596092  1
  Li  Li2  1  0.025615  0.394693  0.026219  1
  Li  Li3  1  0.890030  0.538598  0.531287  1
  Li  Li4  1  0.574354  0.920828  0.946743  1
  Li  Li5  1  0.570149  0.972591  0.592662  1
  Li  Li6  1  0.536252  0.392280  0.020619  1
  Li  Li7  1  0.417800  0.576246  0.514860  1
  Li  Li8  1  0.279227  0.479607  0.363143  1
  Li  Li9  1  0.153931  0.501179  0.767898  1
  Li  Li10  1  0.278096  0.984258  0.361812  1
  Li  Li11  1  0.276764  0.975736  0.856080  1
  Li  Li12  1  0.845270  0.526322  0.205006  1
  Li  Li13  1  0.762208  0.578504  0.659040  1
  Li  Li14  1  0.652835  0.913484  0.245684  1
  Li  Li15  1  0.858085  0.031356  0.724558  1
  Li  Li16  1  0.078138  0.245277  0.155590  1
  Li  Li17  1  0.093432  0.246791  0.836157  1
  Li  Li18  1  0.000908  0.841515  0.175331  1
  Li  Li19  1  0.983817  0.789211  0.864662  1
  Li  Li20  1  0.469196  0.319745  0.333843  1
  Li  Li21  1  0.515923  0.333906  0.665191  1
  Li  Li22  1  0.577786  0.642003  0.252562  1
  Li  Li23  1  0.513745  0.642488  0.821168  1
  Li  Li24  1  0.278988  0.523433  0.136961  1
  Li  Li25  1  0.286245  0.468727  0.858872  1
  Li  Li26  1  0.289471  0.883424  0.267252  1
  Li  Li27  1  0.144714  0.968468  0.704355  1
  Li  Li28  1  0.648879  0.492757  0.330299  1
  Li  Li29  1  0.729443  0.417255  0.666780  1
  Li  Li30  1  0.721079  0.969295  0.135262  1
  Li  Li31  1  0.740920  0.081130  0.659674  1
  Li  Li32  1  0.959400  0.294127  0.352163  1
  Li  Li33  1  0.045472  0.364196  0.713090  1
  Li  Li34  1  0.023076  0.652494  0.311130  1
  Li  Li35  1  0.911715  0.838486  0.751304  1
  Li  Li36  1  0.609432  0.222708  0.267135  1
  Li  Li37  1  0.515293  0.156892  0.828501  1
  Li  Li38  1  0.436555  0.680918  0.312287  1
  Li  Li39  1  0.485107  0.657118  0.662145  1
  Li  Li40  1  0.950950  0.482048  0.383093  1
  Li  Li41  1  0.083604  0.512173  0.087269  1
  Li  Li42  1  0.874645  0.029452  0.534988  1
  Li  Li43  1  0.029993  0.900400  0.037321  1
  Li  Li44  1  0.464331  0.462870  0.396048  1
  Li  Li45  1  0.469009  0.521383  0.103935  1
  Li  Li46  1  0.521511  0.103359  0.506617  1
  Li  Li47  1  0.412300  0.912660  0.012031  1
  Li  Li48  1  0.025677  0.135369  0.279373  1
  Li  Li49  1  0.078411  0.240397  0.658815  1
  Li  Li50  1  0.994503  0.664098  0.156329  1
  Li  Li51  1  0.974039  0.729810  0.638558  1
  Li  Li52  1  0.538026  0.348086  0.199300  1
  Li  Li53  1  0.403362  0.228225  0.672385  1
  Li  Li54  1  0.469955  0.848023  0.256391  1
  Li  Li55  1  0.519915  0.855094  0.717772  1
  Li  Li56  1  0.157877  0.331928  0.502081  1
  Li  Li57  1  0.269036  0.179186  0.095617  1
  Li  Li58  1  0.353581  0.727119  0.451248  1
  Li  Li59  1  0.196627  0.965379  0.144693  1
  Li  Li60  1  0.709386  0.136344  0.486879  1
  Li  Li61  1  0.732658  0.362824  0.026430  1
  Li  Li62  1  0.863056  0.703360  0.502902  1
  Li  Li63  1  0.774464  0.709253  0.111767  1
  Li  Li64  1  0.010593  0.359798  0.207840  1
  Li  Li65  1  0.009765  0.145524  0.783785  1
  Li  Li66  1  0.120043  0.768737  0.221745  1
  Li  Li67  1  0.093187  0.677886  0.769678  1
  Li  Li68  1  0.508229  0.162312  0.345461  1
  Li  Li69  1  0.565487  0.314527  0.809778  1
  Li  Li70  1  0.582136  0.754826  0.339493  1
  Li  Li71  1  0.400696  0.756347  0.767148  1
  Li  Li72  1  0.410823  0.004667  0.418209  1
  Li  Li73  1  0.536696  0.964985  0.106530  1
  Li  Li74  1  0.437389  0.429757  0.563604  1
  Li  Li75  1  0.462006  0.460596  0.890930  1
  Li  Li76  1  0.991390  0.913052  0.584305  1
  Li  Li77  1  0.006221  0.112709  0.953150  1
  Li  Li78  1  0.097004  0.499358  0.416331  1
  Li  Li79  1  0.033344  0.619247  0.968089  1
  Li  Li80  1  0.426404  0.085359  0.005077  1
  Li  Li81  1  0.575372  0.975459  0.421976  1
  Li  Li82  1  0.603385  0.533339  0.962339  1
  Li  Li83  1  0.587480  0.406697  0.492612  1
  Li  Li84  1  0.904350  0.019023  0.074912  1
  Li  Li85  1  0.953287  0.966244  0.399651  1
  Li  Li86  1  0.912851  0.521537  0.067694  1
  Li  Li87  1  0.048444  0.507293  0.595813  1
  Li  Li88  1  0.585740  0.076615  0.977067  1
  Li  Li89  1  0.460593  0.881636  0.473625  1
  Li  Li90  1  0.425778  0.584459  0.977138  1
  Li  Li91  1  0.582959  0.500105  0.592352  1
  Li  Li92  1  0.061340  0.059012  0.078690  1
  Li  Li93  1  0.101558  0.968815  0.519079  1
  Li  Li94  1  0.090937  0.504338  0.914908  1
  Li  Li95  1  0.967317  0.392820  0.491415  1
  Li  Li96  1  0.134787  0.976368  0.280718  1
  Li  Li97  1  0.165686  0.093533  0.777166  1
  Li  Li98  1  0.334019  0.408838  0.247235  1
  Li  Li99  1  0.265188  0.608169  0.763619  1
  Li  Li100  1  0.764626  0.967404  0.363011  1
  Li  Li101  1  0.747029  0.089859  0.833427  1
  Li  Li102  1  0.725413  0.605718  0.282825  1
  Li  Li103  1  0.752177  0.415287  0.835905  1
  Li  Li104  1  0.337360  0.017305  0.175712  1
  Li  Li105  1  0.247652  0.085936  0.650577  1
  Li  Li106  1  0.162746  0.421336  0.235284  1
  Li  Li107  1  0.341765  0.399902  0.755104  1
  Li  Li108  1  0.827638  0.073256  0.228250  1
  Li  Li109  1  0.729366  0.908654  0.675707  1
  Li  Li110  1  0.725664  0.382414  0.214220  1
  Li  Li111  1  0.638339  0.525966  0.779809  1
  Li  Li112  1  0.163077  0.175591  0.986798  1
  Li  Li113  1  0.173383  0.161272  0.476020  1
  Li  Li114  1  0.167770  0.752494  0.906648  1
  Li  Li115  1  0.236787  0.632745  0.529003  1
  Li  Li116  1  0.773756  0.132909  0.027737  1
  Li  Li117  1  0.660797  0.253020  0.411979  1
  Li  Li118  1  0.844347  0.664183  0.999660  1
  Li  Li119  1  0.775833  0.791073  0.385764  1
  Li  Li120  1  0.343710  0.336014  0.987312  1
  Li  Li121  1  0.269154  0.284792  0.385105  1
  Li  Li122  1  0.266355  0.866455  0.982341  1
  Li  Li123  1  0.207897  0.713423  0.395384  1
  Li  Li124  1  0.662994  0.246035  0.084879  1
  Li  Li125  1  0.675832  0.269068  0.587392  1
  Li  Li126  1  0.661645  0.681996  0.986372  1
  Li  Li127  1  0.660086  0.821904  0.514838  1
  Li  Li128  1  0.411425  0.259859  0.155820  1
  Li  Li129  1  0.409813  0.266469  0.828831  1
  Li  Li130  1  0.589750  0.764278  0.157015  1
  Li  Li131  1  0.591697  0.757624  0.833367  1
  Li  Li132  1  0.900071  0.216932  0.216280  1
  Li  Li133  1  0.894286  0.259052  0.737422  1
  Li  Li134  1  0.888813  0.726168  0.234448  1
  Li  Li135  1  0.083784  0.832027  0.730882  1
  Li  Li136  1  0.080395  0.992889  0.912697  1
  Li  Li137  1  0.024464  0.102416  0.449061  1
  Li  Li138  1  0.919544  0.487660  0.913826  1
  Li  Li139  1  0.030895  0.619041  0.467390  1
  Li  Li140  1  0.450047  0.971839  0.888869  1
  Li  Li141  1  0.409246  0.011700  0.584383  1
  Li  Li142  1  0.348160  0.759121  0.934070  1
  Li  Li143  1  0.564135  0.593659  0.470802  1
  Li  Li144  1  0.214491  0.108441  0.276768  1
  Li  Li145  1  0.305721  0.930039  0.691491  1
  Li  Li146  1  0.338553  0.580555  0.248174  1
  Li  Li147  1  0.357535  0.525095  0.682010  1
  Li  Li148  1  0.831498  0.908963  0.247706  1
  Li  Li149  1  0.634110  0.018627  0.779214  1
  Li  Li150  1  0.791323  0.462374  0.354143  1
  Li  Li151  1  0.863321  0.468471  0.757972  1
  Li  Li152  1  0.093784  0.249102  0.334363  1
  Li  Li153  1  0.980895  0.334830  0.845838  1
  Li  Li154  1  0.996322  0.803851  0.344038  1
  Li  Li155  1  0.923402  0.668406  0.772749  1
  Li  Li156  1  0.509464  0.154748  0.158609  1
  Li  Li157  1  0.562392  0.178553  0.685010  1
  Li  Li158  1  0.453119  0.708913  0.144884  1
  Li  Li159  1  0.599066  0.750346  0.662177  1
  Li  Li160  1  0.311677  0.186975  0.933527  1
  Li  Li161  1  0.225719  0.268365  0.609840  1
  Li  Li162  1  0.290284  0.716635  0.103540  1
  Li  Li163  1  0.281532  0.859661  0.474475  1
  Li  Li164  1  0.668174  0.231309  0.915361  1
  Li  Li165  1  0.831108  0.227375  0.580750  1
  Li  Li166  1  0.843392  0.833173  0.003490  1
  Li  Li167  1  0.721362  0.650506  0.453231  1
  Li  Li168  1  0.174977  0.584220  0.264253  1
  Li  Li169  1  0.224989  0.434732  0.650800  1
  Li  Li170  1  0.398357  0.160190  0.252288  1
  Li  Li171  1  0.337979  0.088491  0.748388  1
  Li  Li172  1  0.678296  0.504510  0.148880  1
  Li  Li173  1  0.753006  0.587153  0.836241  1
  Li  Li174  1  0.670786  0.080751  0.263803  1
  Li  Li175  1  0.765870  0.918853  0.830076  1
  Li  Li176  1  0.193419  0.320143  0.931840  1
  Li  Li177  1  0.332721  0.168180  0.513266  1
  Li  Li178  1  0.146996  0.782475  0.051693  1
  Li  Li179  1  0.320263  0.735222  0.600730  1
  Li  Li180  1  0.824303  0.264126  0.908818  1
  Li  Li181  1  0.787365  0.358609  0.479602  1
  Li  Li182  1  0.776609  0.773812  0.891009  1
  Li  Li183  1  0.829575  0.850865  0.497441  1
  Li  Li184  1  0.335417  0.331325  0.499676  1
  Li  Li185  1  0.224645  0.338192  0.087396  1
  Li  Li186  1  0.145291  0.790008  0.538882  1
  Li  Li187  1  0.223425  0.638591  0.967715  1
  Li  Li188  1  0.824114  0.215938  0.413329  1
  Li  Li189  1  0.842865  0.245478  0.074860  1
  Li  Li190  1  0.776638  0.726285  0.604669  1
  Li  Li191  1  0.682410  0.834455  0.021077  1
  Cl  Cl192  1  0.116035  0.135057  0.367405  1
  Cl  Cl193  1  0.104784  0.131427  0.874161  1
  Cl  Cl194  1  0.119431  0.615686  0.375126  1
  Cl  Cl195  1  0.125494  0.630902  0.887359  1
  Cl  Cl196  1  0.622345  0.144730  0.364370  1
  Cl  Cl197  1  0.626568  0.119074  0.868924  1
  Cl  Cl198  1  0.631369  0.615330  0.362191  1
  Cl  Cl199  1  0.629251  0.616669  0.868064  1
  Cl  Cl200  1  0.367774  0.374783  0.373558  1
  Cl  Cl201  1  0.372055  0.375234  0.870125  1
  Cl  Cl202  1  0.362813  0.897559  0.384175  1
  Cl  Cl203  1  0.360911  0.887330  0.906043  1
  Cl  Cl204  1  0.879996  0.384199  0.395385  1
  Cl  Cl205  1  0.872580  0.384590  0.856015  1
  Cl  Cl206  1  0.854657  0.884928  0.376286  1
  Cl  Cl207  1  0.872978  0.866894  0.874527  1
  Cl  Cl208  1  0.382674  0.135502  0.135779  1
  Cl  Cl209  1  0.360781  0.122287  0.627473  1
  Cl  Cl210  1  0.374119  0.611236  0.134157  1
  Cl  Cl211  1  0.377811  0.623277  0.619058  1
  Cl  Cl212  1  0.861427  0.126317  0.119135  1
  Cl  Cl213  1  0.863865  0.111993  0.624037  1
  Cl  Cl214  1  0.876867  0.630775  0.123329  1
  Cl  Cl215  1  0.863342  0.636216  0.603003  1
  Cl  Cl216  1  0.113404  0.375956  0.130364  1
  Cl  Cl217  1  0.133117  0.349333  0.622970  1
  Cl  Cl218  1  0.114606  0.868103  0.131003  1
  Cl  Cl219  1  0.106011  0.887669  0.620705  1
  Cl  Cl220  1  0.635463  0.363207  0.123942  1
  Cl  Cl221  1  0.620429  0.380886  0.610478  1
  Cl  Cl222  1  0.628166  0.880368  0.127686  1
  Cl  Cl223  1  0.619474  0.865500  0.629135  1
  S  S224  1  0.047226  0.441916  0.300710  1
  S  S225  1  0.059308  0.441212  0.811131  1
  S  S226  1  0.031799  0.925135  0.311366  1
  S  S227  1  0.065322  0.936754  0.802159  1
  S  S228  1  0.548000  0.422871  0.307721  1
  S  S229  1  0.555053  0.439747  0.808883  1
  S  S230  1  0.546965  0.933601  0.310487  1
  S  S231  1  0.544033  0.937712  0.806664  1
  S  S232  1  0.442251  0.063158  0.312484  1
  S  S233  1  0.437267  0.060785  0.807075  1
  S  S234  1  0.440578  0.546252  0.308730  1
  S  S235  1  0.432598  0.549541  0.800846  1
  S  S236  1  0.933758  0.055457  0.302897  1
  S  S237  1  0.942027  0.050373  0.816147  1
  S  S238  1  0.935452  0.564714  0.295866  1
  S  S239  1  0.938006  0.553339  0.807104  1
  S  S240  1  0.440744  0.430666  0.185983  1
  S  S241  1  0.441363  0.432607  0.687122  1
  S  S242  1  0.439331  0.948495  0.190741  1
  S  S243  1  0.436188  0.942940  0.684908  1
  S  S244  1  0.945389  0.457399  0.173074  1
  S  S245  1  0.962797  0.450232  0.679647  1
  S  S246  1  0.931475  0.944576  0.179372  1
  S  S247  1  0.939131  0.944998  0.692710  1
  S  S248  1  0.065018  0.043407  0.203495  1
  S  S249  1  0.057296  0.063551  0.700197  1
  S  S250  1  0.067127  0.569410  0.195927  1
  S  S251  1  0.072940  0.567879  0.706939  1
  S  S252  1  0.564415  0.053333  0.197170  1
  S  S253  1  0.557353  0.053246  0.690707  1
  S  S254  1  0.557838  0.542505  0.189729  1
  S  S255  1  0.556079  0.556306  0.694055  1
  S  S256  1  0.305972  0.066822  0.445382  1
  S  S257  1  0.316093  0.064418  0.947926  1
  S  S258  1  0.303193  0.556019  0.457470  1
  S  S259  1  0.308775  0.553743  0.940543  1
  S  S260  1  0.788885  0.052303  0.448998  1
  S  S261  1  0.807631  0.051284  0.935085  1
  S  S262  1  0.805488  0.558273  0.437433  1
  S  S263  1  0.819313  0.559851  0.940665  1
  S  S264  1  0.301744  0.432351  0.057021  1
  S  S265  1  0.310988  0.429113  0.565164  1
  S  S266  1  0.298375  0.951711  0.069804  1
  S  S267  1  0.307331  0.947290  0.562230  1
  S  S268  1  0.802857  0.456421  0.069312  1
  S  S269  1  0.800562  0.452400  0.563215  1
  S  S270  1  0.807776  0.939397  0.054480  1
  S  S271  1  0.794298  0.941712  0.570350  1
  S  S272  1  0.198914  0.431692  0.441011  1
  S  S273  1  0.192395  0.441742  0.931636  1
  S  S274  1  0.196573  0.943183  0.443066  1
  S  S275  1  0.193649  0.956506  0.944912  1
  S  S276  1  0.696562  0.436460  0.436521  1
  S  S277  1  0.696944  0.446370  0.943308  1
  S  S278  1  0.682896  0.927600  0.448137  1
  S  S279  1  0.697028  0.924966  0.933029  1
  S  S280  1  0.193745  0.076224  0.063107  1
  S  S281  1  0.182175  0.061226  0.553950  1
  S  S282  1  0.194111  0.556091  0.055073  1
  S  S283  1  0.186162  0.532676  0.573369  1
  S  S284  1  0.686374  0.047533  0.046208  1
  S  S285  1  0.668902  0.049681  0.561302  1
  S  S286  1  0.689338  0.573186  0.045566  1
  S  S287  1  0.681138  0.566734  0.544316  1
  S  S288  1  0.449760  0.306489  0.050146  1
  S  S289  1  0.440210  0.303104  0.564830  1
  S  S290  1  0.442282  0.799863  0.054339  1
  S  S291  1  0.422662  0.788665  0.539889  1
  S  S292  1  0.950508  0.308598  0.064928  1
  S  S293  1  0.937098  0.296305  0.560287  1
  S  S294  1  0.946606  0.814333  0.066268  1
  S  S295  1  0.933319  0.806079  0.552517  1
  S  S296  1  0.049660  0.313073  0.441441  1
  S  S297  1  0.058438  0.313276  0.940811  1
  S  S298  1  0.063632  0.828140  0.447825  1
  S  S299  1  0.065506  0.816029  0.953660  1
  S  S300  1  0.547183  0.308601  0.433688  1
  S  S301  1  0.566246  0.301229  0.938060  1
  S  S302  1  0.553964  0.803884  0.446301  1
  S  S303  1  0.579260  0.799070  0.949603  1
  S  S304  1  0.445132  0.182209  0.452939  1
  S  S305  1  0.443552  0.188492  0.930219  1
  S  S306  1  0.459274  0.665902  0.435376  1
  S  S307  1  0.453889  0.694129  0.928420  1
  S  S308  1  0.942807  0.192118  0.428154  1
  S  S309  1  0.933953  0.204545  0.936522  1
  S  S310  1  0.955136  0.706452  0.423449  1
  S  S311  1  0.947322  0.702289  0.943183  1
  S  S312  1  0.058422  0.185130  0.045315  1
  S  S313  1  0.058195  0.182618  0.544672  1
  S  S314  1  0.062502  0.693579  0.061485  1
  S  S315  1  0.057943  0.701864  0.553866  1
  S  S316  1  0.557787  0.178761  0.048373  1
  S  S317  1  0.570798  0.201024  0.557467  1
  S  S318  1  0.555176  0.684568  0.062532  1
  S  S319  1  0.556378  0.685397  0.562117  1
  S  S320  1  0.302612  0.308956  0.181617  1
  S  S321  1  0.305819  0.302779  0.691885  1
  S  S322  1  0.331809  0.790786  0.199812  1
  S  S323  1  0.314593  0.807203  0.698692  1
  S  S324  1  0.809429  0.296975  0.184576  1
  S  S325  1  0.797012  0.308922  0.682441  1
  S  S326  1  0.802957  0.801701  0.189749  1
  S  S327  1  0.811597  0.808214  0.687998  1
  S  S328  1  0.297547  0.195981  0.306902  1
  S  S329  1  0.311336  0.190653  0.810815  1
  S  S330  1  0.311358  0.677005  0.322829  1
  S  S331  1  0.306942  0.703700  0.823635  1
  S  S332  1  0.813063  0.177969  0.297412  1
  S  S333  1  0.809668  0.195056  0.800039  1
  S  S334  1  0.799701  0.695204  0.313144  1
  S  S335  1  0.812057  0.692834  0.810303  1
  S  S336  1  0.187094  0.191408  0.187581  1
  S  S337  1  0.189410  0.187930  0.698585  1
  S  S338  1  0.207728  0.683658  0.193029  1
  S  S339  1  0.199627  0.687403  0.701060  1
  S  S340  1  0.689458  0.179530  0.188805  1
  S  S341  1  0.686143  0.190648  0.686919  1
  S  S342  1  0.685833  0.687823  0.194441  1
  S  S343  1  0.699889  0.687549  0.689327  1
  S  S344  1  0.189526  0.316704  0.300104  1
  S  S345  1  0.191980  0.310846  0.809725  1
  S  S346  1  0.205897  0.801081  0.307259  1
  S  S347  1  0.184431  0.815986  0.804122  1
  S  S348  1  0.696536  0.300351  0.301218  1
  S  S349  1  0.690236  0.306244  0.811089  1
  S  S350  1  0.685258  0.812358  0.308118  1
  S  S351  1  0.698372  0.810472  0.804369  1
  S  S352  1  0.997800  0.005254  0.997094  1
  S  S353  1  0.988096  0.005939  0.507598  1
  S  S354  1  0.006810  0.506782  0.996119  1
  S  S355  1  0.999014  0.507246  0.487882  1
  S  S356  1  0.498870  0.993193  0.995680  1
  S  S357  1  0.493123  0.992240  0.501694  1
  S  S358  1  0.497988  0.497184  0.994509  1
  S  S359  1  0.506680  0.494419  0.501092  1
  S  S360  1  0.007218  0.250044  0.252201  1
  S  S361  1  0.009160  0.259873  0.754918  1
  S  S362  1  0.004455  0.745433  0.242516  1
  S  S363  1  0.997651  0.753972  0.752222  1
  S  S364  1  0.492688  0.239233  0.245421  1
  S  S365  1  0.494523  0.247286  0.747452  1
  S  S366  1  0.512237  0.738677  0.246327  1
  S  S367  1  0.514144  0.739423  0.745513  1
  S  S368  1  0.245662  0.994166  0.250095  1
  S  S369  1  0.246561  0.014049  0.745782  1
  S  S370  1  0.254622  0.496708  0.249898  1
  S  S371  1  0.265255  0.491539  0.746664  1
  S  S372  1  0.744570  0.989520  0.248872  1
  S  S373  1  0.746480  0.004087  0.750164  1
  S  S374  1  0.739972  0.494229  0.252193  1
  S  S375  1  0.749892  0.500223  0.750663  1
  S  S376  1  0.252276  0.254212  0.004553  1
  S  S377  1  0.248565  0.251895  0.496318  1
  S  S378  1  0.246190  0.751917  0.997974  1
  S  S379  1  0.249910  0.745505  0.501590  1
  S  S380  1  0.749882  0.247322  0.001165  1
  S  S381  1  0.748084  0.246853  0.494525  1
  S  S382  1  0.761084  0.748116  0.002790  1
  S  S383  1  0.757989  0.755297  0.494043  1
  P  P384  1  0.988920  0.991471  0.247708  1
  P  P385  1  0.000920  0.996813  0.753568  1
  P  P386  1  0.999420  0.508911  0.240912  1
  P  P387  1  0.007040  0.505670  0.751190  1
  P  P388  1  0.498153  0.001895  0.253599  1
  P  P389  1  0.491330  0.000678  0.746458  1
  P  P390  1  0.496490  0.487719  0.248001  1
  P  P391  1  0.496831  0.494216  0.747400  1
  P  P392  1  0.250029  0.014613  0.005659  1
  P  P393  1  0.249394  0.005181  0.503238  1
  P  P394  1  0.249501  0.494194  0.997326  1
  P  P395  1  0.249090  0.487906  0.509258  1
  P  P396  1  0.748446  0.990894  0.990204  1
  P  P397  1  0.732890  0.991948  0.508116  1
  P  P398  1  0.753246  0.509532  0.999591  1
  P  P399  1  0.744239  0.503838  0.496888  1
  P  P400  1  0.997749  0.252275  0.997103  1
  P  P401  1  0.994750  0.246032  0.496151  1
  P  P402  1  0.003745  0.755488  0.007895  1
  P  P403  1  0.004116  0.762356  0.492965  1
  P  P404  1  0.503567  0.243448  0.991929  1
  P  P405  1  0.501390  0.250102  0.502598  1
  P  P406  1  0.506598  0.745722  0.998868  1
  P  P407  1  0.498103  0.736935  0.498103  1
  P  P408  1  0.244118  0.253566  0.243026  1
  P  P409  1  0.248693  0.248660  0.756602  1
  P  P410  1  0.266076  0.738670  0.255036  1
  P  P411  1  0.248953  0.755087  0.757071  1
  P  P412  1  0.752206  0.238075  0.243182  1
  P  P413  1  0.743450  0.249949  0.745946  1
  P  P414  1  0.741657  0.750943  0.251447  1
  P  P415  1  0.755289  0.748853  0.747447  1
