# generated using pymatgen
data_X537Li192P32(S5Cl)32
_symmetry_space_group_name_H-M   'P 1'
_cell_length_a   20.31231100
_cell_length_b   20.31233900
_cell_length_c   20.31242400
_cell_angle_alpha   90.00018617
_cell_angle_beta   90.00063749
_cell_angle_gamma   89.99892812
_symmetry_Int_Tables_number   1
_chemical_formula_structural   X537Li192P32(S5Cl)32
_chemical_formula_sum   'X537 Li192 P32 S160 Cl32'
_cell_volume   8380.71412612
_cell_formula_units_Z   1
loop_
 _symmetry_equiv_pos_site_id
 _symmetry_equiv_pos_as_xyz
  1  'x, y, z'
loop_
 _atom_site_type_symbol
 _atom_site_label
 _atom_site_symmetry_multiplicity
 _atom_site_fract_x
 _atom_site_fract_y
 _atom_site_fract_z
 _atom_site_occupancy
  Li  Li1  1  0.096172  0.231966  0.348372  1
  Li  Li2  1  0.158735  0.012409  0.849813  1
  Li  Li3  1  0.127418  0.710108  0.457812  1
  Li  Li4  1  0.009635  0.599978  0.890174  1
  Li  Li5  1  0.736775  0.090200  0.348414  1
  Li  Li6  1  0.602377  0.141821  0.752307  1
  Li  Li7  1  0.599396  0.647103  0.266255  1
  Li  Li8  1  0.656349  0.511434  0.852841  1
  Li  Li9  1  0.167613  0.151885  0.480167  1
  Li  Li10  1  0.106171  0.105347  0.992709  1
  Li  Li11  1  0.096781  0.523884  0.410638  1
  Li  Li12  1  0.238379  0.597613  0.841979  1
  Li  Li13  1  0.515943  0.106683  0.411016  1
  Li  Li14  1  0.606112  0.240530  0.848769  1
  Li  Li15  1  0.598396  0.512960  0.417947  1
  Li  Li16  1  0.604409  0.737898  0.869885  1
  Li  Li17  1  0.110014  0.002740  0.386810  1
  Li  Li18  1  0.112044  0.134066  0.765705  1
  Li  Li19  1  0.152395  0.578064  0.268304  1
  Li  Li20  1  0.125260  0.553370  0.780961  1
  Li  Li21  1  0.667744  0.148994  0.493579  1
  Li  Li22  1  0.519782  0.107712  0.890587  1
  Li  Li23  1  0.653193  0.646971  0.492570  1
  Li  Li24  1  0.505965  0.604107  0.892311  1
  Li  Li25  1  0.026826  0.106463  0.446983  1
  Li  Li26  1  0.118844  0.238972  0.881043  1
  Li  Li27  1  0.005016  0.639932  0.374775  1
  Li  Li28  1  0.167470  0.664192  0.980909  1
  Li  Li29  1  0.609524  0.129505  0.271716  1
  Li  Li30  1  0.643130  0.010261  0.854227  1
  Li  Li31  1  0.510519  0.630649  0.383601  1
  Li  Li32  1  0.734306  0.646420  0.899933  1
  Li  Li33  1  0.113509  0.112849  0.261717  1
  Li  Li34  1  0.010359  0.099007  0.900597  1
  Li  Li35  1  0.234183  0.643836  0.393304  1
  Li  Li36  1  0.110293  0.723793  0.842020  1
  Li  Li37  1  0.633384  0.236432  0.384850  1
  Li  Li38  1  0.661655  0.148551  0.980193  1
  Li  Li39  1  0.647314  0.738107  0.390734  1
  Li  Li40  1  0.596628  0.594498  0.992595  1
  Li  Li41  1  0.238897  0.094516  0.346437  1
  Li  Li42  1  0.240801  0.148959  0.909820  1
  Li  Li43  1  0.111791  0.715988  0.286570  1
  Li  Li44  1  0.109597  0.530157  0.958357  1
  Li  Li45  1  0.607591  0.007573  0.405651  1
  Li  Li46  1  0.743009  0.103389  0.839632  1
  Li  Li47  1  0.734206  0.603029  0.357233  1
  Li  Li48  1  0.622523  0.625324  0.765134  1
  Li  Li49  1  0.138143  0.360354  0.021242  1
  Li  Li50  1  0.093342  0.404041  0.512979  1
  Li  Li51  1  0.145687  0.839196  0.004287  1
  Li  Li52  1  0.044402  0.881168  0.534089  1
  Li  Li53  1  0.660179  0.260741  0.107877  1
  Li  Li54  1  0.555790  0.364193  0.714270  1
  Li  Li55  1  0.603707  0.793742  0.207657  1
  Li  Li56  1  0.597180  0.756559  0.653812  1
  Li  Li57  1  0.009857  0.368116  0.141496  1
  Li  Li58  1  0.238460  0.357548  0.607632  1
  Li  Li59  1  0.238353  0.849254  0.103738  1
  Li  Li60  1  0.203809  0.888437  0.709516  1
  Li  Li61  1  0.619710  0.385082  0.020901  1
  Li  Li62  1  0.613244  0.259189  0.646955  1
  Li  Li63  1  0.645741  0.946539  0.216506  1
  Li  Li64  1  0.598027  0.976533  0.582558  1
  Li  Li65  1  0.239174  0.398926  0.153032  1
  Li  Li66  1  0.141947  0.257777  0.595799  1
  Li  Li67  1  0.112067  0.751802  0.137343  1
  Li  Li68  1  0.207771  0.855244  0.543786  1
  Li  Li69  1  0.641092  0.488972  0.144856  1
  Li  Li70  1  0.549640  0.386528  0.544438  1
  Li  Li71  1  0.506011  0.892478  0.107959  1
  Li  Li72  1  0.739024  0.868236  0.620976  1
  Li  Li73  1  0.136119  0.490403  0.141841  1
  Li  Li74  1  0.010172  0.354269  0.637426  1
  Li  Li75  1  0.011147  0.845614  0.147153  1
  Li  Li76  1  0.032175  0.866086  0.701332  1
  Li  Li77  1  0.517384  0.345697  0.159896  1
  Li  Li78  1  0.615931  0.490305  0.606437  1
  Li  Li79  1  0.630598  0.787396  0.044174  1
  Li  Li80  1  0.507895  0.857319  0.649525  1
  Li  Li81  1  0.112795  0.367165  0.248947  1
  Li  Li82  1  0.152025  0.482190  0.651583  1
  Li  Li83  1  0.096241  0.975729  0.085411  1
  Li  Li84  1  0.101416  0.988154  0.606252  1
  Li  Li85  1  0.746605  0.387855  0.145805  1
  Li  Li86  1  0.714989  0.355887  0.543283  1
  Li  Li87  1  0.609584  0.956948  0.040357  1
  Li  Li88  1  0.643763  0.832112  0.514576  1
  Li  Li89  1  0.104980  0.261327  0.154651  1
  Li  Li90  1  0.104591  0.342230  0.733586  1
  Li  Li91  1  0.148831  0.893886  0.228070  1
  Li  Li92  1  0.112225  0.757272  0.633270  1
  Li  Li93  1  0.650527  0.389429  0.248965  1
  Li  Li94  1  0.715394  0.391309  0.708437  1
  Li  Li95  1  0.737385  0.854820  0.103163  1
  Li  Li96  1  0.647758  0.903277  0.734633  1
  Li  Li97  1  0.496843  0.115199  0.122117  1
  Li  Li98  1  0.345517  0.148928  0.510752  1
  Li  Li99  1  0.456855  0.538953  0.116321  1
  Li  Li100  1  0.406216  0.647566  0.738474  1
  Li  Li101  1  0.854511  0.237722  0.105557  1
  Li  Li102  1  0.854793  0.149333  0.510141  1
  Li  Li103  1  0.849923  0.522058  0.153196  1
  Li  Li104  1  0.861548  0.513344  0.630640  1
  Li  Li105  1  0.367057  0.048023  0.221465  1
  Li  Li106  1  0.385352  0.134102  0.737393  1
  Li  Li107  1  0.330878  0.728343  0.090407  1
  Li  Li108  1  0.393824  0.739761  0.639924  1
  Li  Li109  1  0.860304  0.009997  0.133987  1
  Li  Li110  1  0.950649  0.040285  0.608368  1
  Li  Li111  1  0.882877  0.654655  0.236048  1
  Li  Li112  1  0.895132  0.743888  0.645702  1
  Li  Li113  1  0.387839  0.210752  0.203918  1
  Li  Li114  1  0.379172  0.239099  0.627490  1
  Li  Li115  1  0.468521  0.705700  0.140300  1
  Li  Li116  1  0.339808  0.653185  0.518488  1
  Li  Li117  1  0.983104  0.102772  0.093218  1
  Li  Li118  1  0.891985  0.141288  0.739076  1
  Li  Li119  1  0.860910  0.744109  0.100331  1
  Li  Li120  1  0.797442  0.625558  0.708330  1
  Li  Li121  1  0.264449  0.121769  0.126956  1
  Li  Li122  1  0.351681  0.010650  0.643604  1
  Li  Li123  1  0.273059  0.581283  0.146427  1
  Li  Li124  1  0.374572  0.508100  0.630470  1
  Li  Li125  1  0.755666  0.133387  0.118131  1
  Li  Li126  1  0.789242  0.053059  0.641367  1
  Li  Li127  1  0.759398  0.654227  0.099122  1
  Li  Li128  1  0.981862  0.588311  0.568824  1
  Li  Li129  1  0.372623  0.200270  0.041236  1
  Li  Li130  1  0.256725  0.142630  0.616697  1
  Li  Li131  1  0.392736  0.606746  0.011222  1
  Li  Li132  1  0.487782  0.597607  0.591596  1
  Li  Li133  1  0.890305  0.137328  0.236571  1
  Li  Li134  1  0.795865  0.216741  0.617211  1
  Li  Li135  1  0.906024  0.596391  0.013986  1
  Li  Li136  1  0.967287  0.640157  0.708545  1
  Li  Li137  1  0.386748  0.033052  0.048594  1
  Li  Li138  1  0.483362  0.097387  0.589239  1
  Li  Li139  1  0.394252  0.640346  0.240888  1
  Li  Li140  1  0.262411  0.602820  0.658929  1
  Li  Li141  1  0.849655  0.139373  0.009202  1
  Li  Li142  1  0.966766  0.206012  0.629394  1
  Li  Li143  1  0.989960  0.653842  0.140372  1
  Li  Li144  1  0.826628  0.643544  0.524644  1
  Li  Li145  1  0.491410  0.356430  0.354805  1
  Li  Li146  1  0.262901  0.396208  0.862241  1
  Li  Li147  1  0.290161  0.792989  0.385211  1
  Li  Li148  1  0.259408  0.890346  0.858287  1
  Li  Li149  1  0.765241  0.407944  0.360790  1
  Li  Li150  1  0.992889  0.413531  0.889383  1
  Li  Li151  1  0.848899  0.892942  0.261480  1
  Li  Li152  1  0.991582  0.878940  0.874806  1
  Li  Li153  1  0.260382  0.372489  0.380969  1
  Li  Li154  1  0.379089  0.375230  0.766645  1
  Li  Li155  1  0.461470  0.955257  0.387960  1
  Li  Li156  1  0.350792  0.987078  0.847668  1
  Li  Li157  1  0.910111  0.492687  0.393943  1
  Li  Li158  1  0.765083  0.393138  0.859212  1
  Li  Li159  1  0.859892  0.991822  0.359256  1
  Li  Li160  1  0.886183  0.789378  0.797644  1
  Li  Li161  1  0.390983  0.257744  0.356877  1
  Li  Li162  1  0.359162  0.258704  0.893116  1
  Li  Li163  1  0.374130  0.879509  0.489330  1
  Li  Li164  1  0.398190  0.839002  0.769052  1
  Li  Li165  1  0.985197  0.351258  0.341722  1
  Li  Li166  1  0.908534  0.345879  0.762860  1
  Li  Li167  1  0.886961  0.899572  0.487641  1
  Li  Li168  1  0.859636  0.795109  0.958068  1
  Li  Li169  1  0.373495  0.488126  0.375864  1
  Li  Li170  1  0.349414  0.351535  0.996025  1
  Li  Li171  1  0.292086  0.955657  0.373508  1
  Li  Li172  1  0.338071  0.765117  0.904201  1
  Li  Li173  1  0.906506  0.397641  0.488672  1
  Li  Li174  1  0.896742  0.408321  0.986882  1
  Li  Li175  1  0.750526  0.898743  0.358839  1
  Li  Li176  1  0.760086  0.892391  0.859628  1
  Li  Li177  1  0.382182  0.373350  0.488463  1
  Li  Li178  1  0.399764  0.486717  0.908210  1
  Li  Li179  1  0.455549  0.789359  0.355665  1
  Li  Li180  1  0.486028  0.901954  0.898851  1
  Li  Li181  1  0.857647  0.394581  0.262742  1
  Li  Li182  1  0.866424  0.271987  0.893324  1
  Li  Li183  1  0.977354  0.858181  0.354270  1
  Li  Li184  1  0.887653  0.963015  0.957043  1
  Li  Li185  1  0.384320  0.362423  0.258436  1
  Li  Li186  1  0.491234  0.370089  0.879583  1
  Li  Li187  1  0.353387  0.894719  0.261363  1
  Li  Li188  1  0.384518  0.889913  0.992722  1
  Li  Li189  1  0.843854  0.269317  0.401044  1
  Li  Li190  1  0.852396  0.494529  0.843372  1
  Li  Li191  1  0.829923  0.767588  0.405436  1
  Li  Li192  1  0.863224  0.959540  0.790695  1
  Cl  Cl193  1  0.008381  0.028356  0.001039  1
  Cl  Cl194  1  0.011980  0.996538  0.512607  1
  Cl  Cl195  1  0.991591  0.506017  0.969683  1
  Cl  Cl196  1  0.996507  0.493613  0.486419  1
  Cl  Cl197  1  0.486566  0.969951  0.009757  1
  Cl  Cl198  1  0.515372  0.011556  0.487096  1
  Cl  Cl199  1  0.487239  0.530282  0.991160  1
  Cl  Cl200  1  0.529014  0.501333  0.519658  1
  Cl  Cl201  1  0.029024  0.278914  0.252607  1
  Cl  Cl202  1  0.001272  0.270713  0.725436  1
  Cl  Cl203  1  0.017432  0.744799  0.217771  1
  Cl  Cl204  1  0.983017  0.756968  0.733379  1
  Cl  Cl205  1  0.472799  0.276253  0.260738  1
  Cl  Cl206  1  0.539450  0.248566  0.746082  1
  Cl  Cl207  1  0.506405  0.730270  0.252500  1
  Cl  Cl208  1  0.482988  0.758052  0.722322  1
  Cl  Cl209  1  0.267658  0.998121  0.268838  1
  Cl  Cl210  1  0.250900  0.979954  0.777723  1
  Cl  Cl211  1  0.228180  0.500091  0.220894  1
  Cl  Cl212  1  0.230898  0.517696  0.743458  1
  Cl  Cl213  1  0.759838  0.985721  0.276594  1
  Cl  Cl214  1  0.743589  0.989290  0.774339  1
  Cl  Cl215  1  0.753940  0.462923  0.242756  1
  Cl  Cl216  1  0.749781  0.489241  0.777197  1
  Cl  Cl217  1  0.282205  0.246463  0.982666  1
  Cl  Cl218  1  0.246738  0.228748  0.531271  1
  Cl  Cl219  1  0.245522  0.759710  0.008610  1
  Cl  Cl220  1  0.241896  0.742501  0.481791  1
  Cl  Cl221  1  0.754394  0.219785  0.031552  1
  Cl  Cl222  1  0.758630  0.236132  0.505177  1
  Cl  Cl223  1  0.758709  0.755215  0.025626  1
  Cl  Cl224  1  0.729452  0.744598  0.481301  1
  S  S225  1  0.439686  0.192199  0.446060  1
  S  S226  1  0.450370  0.189485  0.944449  1
  S  S227  1  0.433782  0.696758  0.443449  1
  S  S228  1  0.435257  0.694695  0.936664  1
  S  S229  1  0.941204  0.193924  0.430579  1
  S  S230  1  0.940772  0.194801  0.945073  1
  S  S231  1  0.921906  0.692964  0.446930  1
  S  S232  1  0.936518  0.690314  0.937297  1
  S  S233  1  0.188808  0.055240  0.061390  1
  S  S234  1  0.187028  0.059782  0.560720  1
  S  S235  1  0.189448  0.560334  0.053446  1
  S  S236  1  0.192676  0.558700  0.563566  1
  S  S237  1  0.686754  0.053417  0.056851  1
  S  S238  1  0.691973  0.056245  0.566951  1
  S  S239  1  0.691133  0.560573  0.061706  1
  S  S240  1  0.707018  0.562748  0.562780  1
  S  S241  1  0.305282  0.055742  0.444464  1
  S  S242  1  0.310105  0.054181  0.947712  1
  S  S243  1  0.306942  0.560052  0.444764  1
  S  S244  1  0.306476  0.556181  0.938291  1
  S  S245  1  0.804546  0.056956  0.445120  1
  S  S246  1  0.806079  0.054474  0.936659  1
  S  S247  1  0.811650  0.555645  0.438003  1
  S  S248  1  0.808259  0.561742  0.943846  1
  S  S249  1  0.056841  0.197402  0.061928  1
  S  S250  1  0.057015  0.186263  0.544696  1
  S  S251  1  0.061402  0.684547  0.047614  1
  S  S252  1  0.049142  0.689988  0.551234  1
  S  S253  1  0.570300  0.189287  0.058181  1
  S  S254  1  0.561580  0.187448  0.557024  1
  S  S255  1  0.554484  0.691415  0.056166  1
  S  S256  1  0.557424  0.692470  0.557418  1
  S  S257  1  0.124751  0.117885  0.376122  1
  S  S258  1  0.126044  0.124438  0.879548  1
  S  S259  1  0.120305  0.631674  0.369249  1
  S  S260  1  0.126317  0.616067  0.879443  1
  S  S261  1  0.629522  0.121933  0.383959  1
  S  S262  1  0.630562  0.125627  0.866910  1
  S  S263  1  0.623913  0.623277  0.379802  1
  S  S264  1  0.621698  0.623214  0.879701  1
  S  S265  1  0.446929  0.442812  0.193736  1
  S  S266  1  0.450383  0.434843  0.692366  1
  S  S267  1  0.440404  0.948862  0.195252  1
  S  S268  1  0.433022  0.939229  0.697005  1
  S  S269  1  0.939252  0.449217  0.193202  1
  S  S270  1  0.935451  0.437383  0.685629  1
  S  S271  1  0.936285  0.934550  0.189706  1
  S  S272  1  0.938730  0.947287  0.692301  1
  S  S273  1  0.192873  0.301142  0.315311  1
  S  S274  1  0.192007  0.309817  0.813672  1
  S  S275  1  0.193905  0.806626  0.303310  1
  S  S276  1  0.190014  0.807241  0.807102  1
  S  S277  1  0.701524  0.307087  0.319861  1
  S  S278  1  0.694858  0.311534  0.807140  1
  S  S279  1  0.683706  0.812623  0.301775  1
  S  S280  1  0.681722  0.810171  0.810685  1
  S  S281  1  0.304287  0.301798  0.190013  1
  S  S282  1  0.307811  0.308630  0.695634  1
  S  S283  1  0.311790  0.802989  0.186824  1
  S  S284  1  0.303863  0.809328  0.690764  1
  S  S285  1  0.812730  0.300569  0.197237  1
  S  S286  1  0.811104  0.310512  0.693647  1
  S  S287  1  0.807502  0.806899  0.191723  1
  S  S288  1  0.805702  0.812816  0.702365  1
  S  S289  1  0.054252  0.453827  0.313635  1
  S  S290  1  0.061585  0.443719  0.795402  1
  S  S291  1  0.057272  0.933302  0.300977  1
  S  S292  1  0.062214  0.943610  0.800392  1
  S  S293  1  0.563989  0.443681  0.315546  1
  S  S294  1  0.561190  0.442045  0.810787  1
  S  S295  1  0.560663  0.936779  0.312074  1
  S  S296  1  0.556630  0.940470  0.806071  1
  S  S297  1  0.125345  0.374754  0.133349  1
  S  S298  1  0.124794  0.370632  0.620866  1
  S  S299  1  0.124130  0.865984  0.117591  1
  S  S300  1  0.120906  0.872706  0.622901  1
  S  S301  1  0.631047  0.372860  0.134301  1
  S  S302  1  0.632526  0.374067  0.626346  1
  S  S303  1  0.622363  0.874091  0.123655  1
  S  S304  1  0.623323  0.868392  0.625557  1
  S  S305  1  0.187855  0.185139  0.197110  1
  S  S306  1  0.185462  0.196135  0.696147  1
  S  S307  1  0.195787  0.682504  0.193416  1
  S  S308  1  0.187058  0.687868  0.698118  1
  S  S309  1  0.688689  0.189921  0.202822  1
  S  S310  1  0.704003  0.186928  0.694460  1
  S  S311  1  0.684597  0.695504  0.190099  1
  S  S312  1  0.691882  0.690630  0.693908  1
  S  S313  1  0.450142  0.058710  0.314393  1
  S  S314  1  0.443816  0.059520  0.809039  1
  S  S315  1  0.445444  0.557703  0.313313  1
  S  S316  1  0.436795  0.553663  0.808860  1
  S  S317  1  0.947127  0.056023  0.306104  1
  S  S318  1  0.939179  0.056984  0.812726  1
  S  S319  1  0.936465  0.569367  0.305020  1
  S  S320  1  0.941429  0.560191  0.795935  1
  S  S321  1  0.055294  0.047739  0.181433  1
  S  S322  1  0.050147  0.066489  0.688468  1
  S  S323  1  0.056831  0.565515  0.191567  1
  S  S324  1  0.053062  0.555711  0.678170  1
  S  S325  1  0.569433  0.049679  0.194223  1
  S  S326  1  0.553971  0.051457  0.682604  1
  S  S327  1  0.557595  0.559013  0.193182  1
  S  S328  1  0.555932  0.559946  0.693431  1
  S  S329  1  0.312483  0.184449  0.302735  1
  S  S330  1  0.306222  0.188757  0.809402  1
  S  S331  1  0.311859  0.695111  0.311428  1
  S  S332  1  0.311112  0.691763  0.807646  1
  S  S333  1  0.810583  0.185166  0.314946  1
  S  S334  1  0.815765  0.196255  0.814514  1
  S  S335  1  0.800259  0.694009  0.311140  1
  S  S336  1  0.804212  0.695265  0.812344  1
  S  S337  1  0.380892  0.121310  0.127547  1
  S  S338  1  0.372505  0.123891  0.623457  1
  S  S339  1  0.380052  0.628024  0.125995  1
  S  S340  1  0.376293  0.623416  0.626718  1
  S  S341  1  0.872098  0.123104  0.123460  1
  S  S342  1  0.876177  0.130195  0.624681  1
  S  S343  1  0.874462  0.631670  0.123408  1
  S  S344  1  0.881935  0.627213  0.627217  1
  S  S345  1  0.187493  0.445155  0.444101  1
  S  S346  1  0.190170  0.438621  0.945464  1
  S  S347  1  0.192234  0.936580  0.445958  1
  S  S348  1  0.186928  0.939523  0.944962  1
  S  S349  1  0.690874  0.439474  0.449039  1
  S  S350  1  0.693183  0.442466  0.946667  1
  S  S351  1  0.689701  0.935235  0.454796  1
  S  S352  1  0.685769  0.938523  0.944040  1
  S  S353  1  0.447612  0.301185  0.062930  1
  S  S354  1  0.450531  0.310566  0.563781  1
  S  S355  1  0.434043  0.800617  0.062754  1
  S  S356  1  0.442546  0.812349  0.558082  1
  S  S357  1  0.937259  0.314371  0.059400  1
  S  S358  1  0.940853  0.302522  0.554073  1
  S  S359  1  0.947060  0.809396  0.047084  1
  S  S360  1  0.939282  0.816497  0.558409  1
  S  S361  1  0.058049  0.311757  0.435128  1
  S  S362  1  0.055262  0.315496  0.945472  1
  S  S363  1  0.047431  0.804011  0.436584  1
  S  S364  1  0.062037  0.797691  0.928710  1
  S  S365  1  0.559686  0.309349  0.445082  1
  S  S366  1  0.567847  0.307730  0.945364  1
  S  S367  1  0.553807  0.806634  0.435938  1
  S  S368  1  0.554585  0.811729  0.947875  1
  S  S369  1  0.310971  0.447046  0.062383  1
  S  S370  1  0.309103  0.438944  0.556915  1
  S  S371  1  0.305430  0.941888  0.064716  1
  S  S372  1  0.299532  0.938462  0.564393  1
  S  S373  1  0.812257  0.448374  0.062648  1
  S  S374  1  0.811605  0.436479  0.555835  1
  S  S375  1  0.810307  0.940143  0.051523  1
  S  S376  1  0.812078  0.948607  0.568666  1
  S  S377  1  0.375473  0.373219  0.374742  1
  S  S378  1  0.376382  0.374640  0.881384  1
  S  S379  1  0.375238  0.874892  0.375049  1
  S  S380  1  0.373717  0.874780  0.878828  1
  S  S381  1  0.877172  0.380202  0.376223  1
  S  S382  1  0.880310  0.383626  0.873132  1
  S  S383  1  0.865374  0.876707  0.376171  1
  S  S384  1  0.875924  0.877812  0.875202  1
  P  P385  1  0.247336  0.996559  0.002346  1
  P  P386  1  0.245513  0.000041  0.504120  1
  P  P387  1  0.251074  0.498483  0.000836  1
  P  P388  1  0.247612  0.501832  0.503524  1
  P  P389  1  0.747152  0.998748  0.997511  1
  P  P390  1  0.749184  0.998459  0.506877  1
  P  P391  1  0.751225  0.503176  0.003097  1
  P  P392  1  0.754482  0.499451  0.500473  1
  P  P393  1  0.248693  0.244991  0.252660  1
  P  P394  1  0.248155  0.250195  0.754082  1
  P  P395  1  0.252964  0.746799  0.247166  1
  P  P396  1  0.248978  0.747996  0.749643  1
  P  P397  1  0.753159  0.245495  0.257874  1
  P  P398  1  0.755475  0.251548  0.753557  1
  P  P399  1  0.744469  0.751396  0.248712  1
  P  P400  1  0.743687  0.752731  0.755088  1
  P  P401  1  0.997403  0.994167  0.245020  1
  P  P402  1  0.999116  0.004173  0.749751  1
  P  P403  1  0.997883  0.509208  0.250628  1
  P  P404  1  0.996897  0.496811  0.739070  1
  P  P405  1  0.505364  0.998881  0.254876  1
  P  P406  1  0.497427  0.998436  0.747419  1
  P  P407  1  0.504585  0.498833  0.254859  1
  P  P408  1  0.500795  0.499092  0.752655  1
  P  P409  1  0.997697  0.255019  0.003583  1
  P  P410  1  0.999558  0.250984  0.490247  1
  P  P411  1  0.002155  0.744615  0.991566  1
  P  P412  1  0.987071  0.750651  0.498471  1
  P  P413  1  0.508751  0.247876  0.002882  1
  P  P414  1  0.502591  0.248492  0.502455  1
  P  P415  1  0.493889  0.748614  0.998513  1
  P  P416  1  0.498245  0.751143  0.499430  1
  X0+  X417  1  0.126829  0.243902  0.873171  1
  X0+  X418  1  0.235772  0.146341  0.894309  1
  X0+  X419  1  0.243902  0.097561  0.841463  1
  X0+  X420  1  0.121951  0.121951  0.756098  1
  X0+  X421  1  0.146341  0.097561  0.756098  1
  X0+  X422  1  0.097561  0.146341  0.756098  1
  X0+  X423  1  0.146341  0.146341  -0.012195  1
  X0+  X424  1  0.097561  0.097561  -0.012195  1
  X0+  X425  1  0.121951  0.121951  0.975610  1
  X0+  X426  1  0.008130  0.146341  0.845528  1
  X0+  X427  1  0.006098  0.103659  0.890244  1
  X0+  X428  1  0.103659  0.006098  0.890244  1
  X0+  X429  1  0.146341  0.000000  0.853659  1
  X0+  X430  1  0.146341  0.024390  0.829268  1
  X0+  X431  1  0.146341  0.256098  0.097561  1
  X0+  X432  1  0.097561  0.256098  0.146341  1
  X0+  X433  1  0.121951  0.268293  0.121951  1
  X0+  X434  1  0.012195  0.390244  0.097561  1
  X0+  X435  1  0.006098  0.353659  0.140244  1
  X0+  X436  1  0.105691  0.357724  0.243902  1
  X0+  X437  1  0.146341  0.390244  0.243902  1
  X0+  X438  1  0.048780  0.365854  0.219512  1
  X0+  X439  1  0.097561  0.487805  0.097561  1
  X0+  X440  1  0.121951  0.487805  0.121951  1
  X0+  X441  1  0.146341  0.487805  0.146341  1
  X0+  X442  1  0.231707  0.341463  0.097561  1
  X0+  X443  1  0.243902  0.365854  0.121951  1
  X0+  X444  1  0.243902  0.390244  0.146341  1
  X0+  X445  1  0.146341  0.341463  0.012195  1
  X0+  X446  1  0.103659  0.396341  0.018293  1
  X0+  X447  1  0.487805  0.614634  0.117073  1
  X0+  X448  1  0.463415  0.634146  0.195122  1
  X0+  X449  1  0.365854  0.536585  0.207317  1
  X0+  X450  1  0.347561  0.597561  0.237805  1
  X0+  X451  1  0.390244  0.634146  0.243902  1
  X0+  X452  1  0.264228  0.617886  0.121951  1
  X0+  X453  1  0.390244  0.512195  0.109756  1
  X0+  X454  1  0.341463  0.512195  0.146341  1
  X0+  X455  1  0.292683  0.536585  0.146341  1
  X0+  X456  1  0.390244  0.601626  0.016260  1
  X0+  X457  1  0.341463  0.634146  0.000000  1
  X0+  X458  1  0.390244  0.536585  0.048780  1
  X0+  X459  1  0.341463  0.731707  0.097561  1
  X0+  X460  1  0.365854  0.731707  0.121951  1
  X0+  X461  1  0.390244  0.731707  0.146341  1
  X0+  X462  1  0.390244  0.707317  0.195122  1
  X0+  X463  1  0.365854  0.707317  0.048780  1
  X0+  X464  1  0.621951  0.121951  0.756098  1
  X0+  X465  1  0.731707  0.121951  0.865854  1
  X0+  X466  1  0.658537  0.231707  0.902439  1
  X0+  X467  1  0.634146  0.243902  0.878049  1
  X0+  X468  1  0.609756  0.243902  0.853659  1
  X0+  X469  1  0.585366  0.219512  0.829268  1
  X0+  X470  1  0.597561  0.097561  0.975610  1
  X0+  X471  1  0.640244  0.140244  0.981707  1
  X0+  X472  1  0.512195  0.097561  0.890244  1
  X0+  X473  1  0.512195  0.146341  0.841463  1
  X0+  X474  1  0.634146  0.012195  0.853659  1
  X0+  X475  1  0.658537  0.024390  0.829268  1
  X0+  X476  1  0.609756  0.012195  0.878049  1
  X0+  X477  1  0.585366  0.000000  0.902439  1
  X0+  X478  1  0.146341  0.731707  0.402439  1
  X0+  X479  1  0.105691  0.731707  0.357724  1
  X0+  X480  1  0.121951  0.621951  0.268293  1
  X0+  X481  1  0.048780  0.634146  0.292683  1
  X0+  X482  1  0.012195  0.591463  0.396341  1
  X0+  X483  1  0.000000  0.634146  0.365854  1
  X0+  X484  1  0.024390  0.658537  0.341463  1
  X0+  X485  1  0.121951  0.621951  0.487805  1
  X0+  X486  1  0.048780  0.609756  0.463415  1
  X0+  X487  1  0.128920  0.512195  0.372822  1
  X0+  X488  1  0.231707  0.585366  0.341463  1
  X0+  X489  1  0.243902  0.609756  0.365854  1
  X0+  X490  1  0.243902  0.634146  0.390244  1
  X0+  X491  1  0.617886  0.004065  0.365854  1
  X0+  X492  1  0.621951  0.121951  0.487805  1
  X0+  X493  1  0.597561  0.237805  0.347561  1
  X0+  X494  1  0.634146  0.243902  0.390244  1
  X0+  X495  1  0.512195  0.109756  0.390244  1
  X0+  X496  1  0.512195  0.146341  0.341463  1
  X0+  X497  1  0.536585  0.146341  0.292683  1
  X0+  X498  1  0.585366  0.146341  0.268293  1
  X0+  X499  1  0.646341  0.097561  0.268293  1
  X0+  X500  1  0.731707  0.146341  0.402439  1
  X0+  X501  1  0.731707  0.105691  0.357724  1
  X0+  X502  1  0.707317  0.121951  0.292683  1
  X0+  X503  1  0.865854  0.121951  0.243902  1
  X0+  X504  1  0.843902  0.141463  0.014634  1
  X0+  X505  1  0.878049  0.097561  0.000000  1
  X0+  X506  1  0.902439  0.097561  0.024390  1
  X0+  X507  1  0.890244  0.231707  0.146341  1
  X0+  X508  1  0.845528  0.243902  0.105691  1
  X0+  X509  1  0.951220  0.195122  0.146341  1
  X0+  X510  1  0.975610  0.146341  0.146341  1
  X0+  X511  1  0.780488  0.219512  0.121951  1
  X0+  X512  1  0.756098  0.113821  0.138211  1
  X0+  X513  1  0.756098  0.146341  0.097561  1
  X0+  X514  1  0.780488  0.048780  0.146341  1
  X0+  X515  1  0.841463  0.000000  0.146341  1
  X0+  X516  1  0.878049  0.000000  0.097561  1
  X0+  X517  1  0.902439  0.024390  0.097561  1
  X0+  X518  1  0.951220  0.048780  0.121951  1
  X0+  X519  1  0.975610  0.097561  0.097561  1
  X0+  X520  1  0.117073  0.243902  0.370732  1
  X0+  X521  1  0.121951  0.004065  0.373984  1
  X0+  X522  1  0.048780  0.113821  0.455285  1
  X0+  X523  1  0.000000  0.097561  0.390244  1
  X0+  X524  1  0.024390  0.097561  0.414634  1
  X0+  X525  1  0.097561  0.097561  0.487805  1
  X0+  X526  1  0.036585  0.134146  0.292683  1
  X0+  X527  1  0.207317  0.109756  0.292683  1
  X0+  X528  1  0.085366  0.146341  0.268293  1
  X0+  X529  1  0.158537  0.097561  0.268293  1
  X0+  X530  1  0.121951  0.121951  0.268293  1
  X0+  X531  1  0.024390  0.146341  0.341463  1
  X0+  X532  1  0.243902  0.097561  0.341463  1
  X0+  X533  1  0.195122  0.146341  0.463415  1
  X0+  X534  1  0.219512  0.146341  0.439024  1
  X0+  X535  1  0.146341  0.146341  0.487805  1
  X0+  X536  1  0.243902  0.146341  0.390244  1
  X0+  X537  1  0.487805  0.121951  0.121951  1
  X0+  X538  1  0.487805  0.146341  0.146341  1
  X0+  X539  1  0.487805  0.097561  0.097561  1
  X0+  X540  1  0.264228  0.130081  0.121951  1
  X0+  X541  1  0.365854  0.048780  0.207317  1
  X0+  X542  1  0.341463  0.016260  0.154472  1
  X0+  X543  1  0.341463  0.097561  0.243902  1
  X0+  X544  1  0.365854  0.121951  0.243902  1
  X0+  X545  1  0.390244  0.146341  0.243902  1
  X0+  X546  1  0.390244  0.231707  0.146341  1
  X0+  X547  1  0.390244  0.195122  0.219512  1
  X0+  X548  1  0.390244  0.219512  0.195122  1
  X0+  X549  1  0.390244  0.097561  0.012195  1
  X0+  X550  1  0.341463  0.146341  0.012195  1
  X0+  X551  1  0.365854  0.121951  0.000000  1
  X0+  X552  1  0.390244  0.048780  0.048780  1
  X0+  X553  1  0.365854  0.207317  0.048780  1
  X0+  X554  1  0.341463  0.243902  0.097561  1
  X0+  X555  1  0.390244  0.000000  0.097561  1
  X0+  X556  1  0.105691  0.357724  0.731707  1
  X0+  X557  1  0.146341  0.390244  0.731707  1
  X0+  X558  1  0.243902  0.390244  0.646341  1
  X0+  X559  1  0.237805  0.347561  0.597561  1
  X0+  X560  1  0.000000  0.353659  0.634146  1
  X0+  X561  1  0.012195  0.390244  0.597561  1
  X0+  X562  1  0.146341  0.260163  0.593496  1
  X0+  X563  1  0.097561  0.268293  0.646341  1
  X0+  X564  1  0.048780  0.292683  0.634146  1
  X0+  X565  1  0.121951  0.292683  0.536585  1
  X0+  X566  1  0.121951  0.378049  0.512195  1
  X0+  X567  1  0.146341  0.487805  0.646341  1
  X0+  X568  1  0.105691  0.487805  0.601626  1
  X0+  X569  1  0.048780  0.463415  0.609756  1
  X0+  X570  1  0.121951  0.463415  0.536585  1
  X0+  X571  1  0.841463  0.390244  0.756098  1
  X0+  X572  1  0.886179  0.349593  0.756098  1
  X0+  X573  1  0.847561  0.347561  0.981707  1
  X0+  X574  1  0.886179  0.390244  -0.016260  1
  X0+  X575  1  0.845528  0.487805  0.837398  1
  X0+  X576  1  0.878049  0.487805  0.878049  1
  X0+  X577  1  0.780488  0.451220  0.853659  1
  X0+  X578  1  0.756098  0.390244  0.841463  1
  X0+  X579  1  0.756098  0.349593  0.886179  1
  X0+  X580  1  0.780488  0.292683  0.878049  1
  X0+  X581  1  0.975610  0.353659  0.853659  1
  X0+  X582  1  -0.018293  0.396341  0.890244  1
  X0+  X583  1  0.894309  0.260163  0.853659  1
  X0+  X584  1  0.845528  0.268293  0.894309  1
  X0+  X585  1  0.951220  0.292683  0.853659  1
  X0+  X586  1  0.951220  0.463415  0.878049  1
  X0+  X587  1  0.593496  0.731707  0.845528  1
  X0+  X588  1  0.642276  0.731707  0.894309  1
  X0+  X589  1  0.642276  0.593496  0.756098  1
  X0+  X590  1  0.593496  0.642276  0.756098  1
  X0+  X591  1  0.634146  0.512195  0.841463  1
  X0+  X592  1  0.585366  0.512195  0.902439  1
  X0+  X593  1  0.609756  0.512195  0.878049  1
  X0+  X594  1  0.512195  0.585366  0.902439  1
  X0+  X595  1  0.512195  0.609756  0.878049  1
  X0+  X596  1  0.512195  0.634146  0.853659  1
  X0+  X597  1  0.731707  0.597561  0.841463  1
  X0+  X598  1  0.731707  0.634146  0.890244  1
  X0+  X599  1  0.642276  0.634146  -0.016260  1
  X0+  X600  1  0.609756  0.609756  0.975610  1
  X0+  X601  1  0.585366  0.585366  0.975610  1
  X0+  X602  1  0.707317  0.634146  0.951220  1
  X0+  X603  1  0.536585  0.609756  0.951220  1
  X0+  X604  1  0.384146  0.884146  0.981707  1
  X0+  X605  1  0.341463  0.853659  0.000000  1
  X0+  X606  1  0.349593  0.886179  0.756098  1
  X0+  X607  1  0.390244  0.841463  0.756098  1
  X0+  X608  1  0.487805  0.890244  0.890244  1
  X0+  X609  1  0.487805  0.853659  0.853659  1
  X0+  X610  1  0.463415  0.951220  0.878049  1
  X0+  X611  1  0.360976  0.975610  0.858537  1
  X0+  X612  1  0.292683  0.951220  0.853659  1
  X0+  X613  1  0.268293  0.845528  0.894309  1
  X0+  X614  1  0.256098  0.878049  0.853659  1
  X0+  X615  1  0.268293  0.902439  0.829268  1
  X0+  X616  1  0.349593  0.756098  0.886179  1
  X0+  X617  1  0.390244  0.756098  0.853659  1
  X0+  X618  1  0.292683  0.780488  0.878049  1
  X0+  X619  1  0.463415  0.780488  0.853659  1
  X0+  X620  1  0.512195  0.365854  0.621951  1
  X0+  X621  1  0.634146  0.451220  0.707317  1
  X0+  X622  1  0.601626  0.349593  0.731707  1
  X0+  X623  1  0.634146  0.390244  0.731707  1
  X0+  X624  1  0.609756  0.292683  0.707317  1
  X0+  X625  1  0.640244  0.262195  0.597561  1
  X0+  X626  1  0.609756  0.268293  0.634146  1
  X0+  X627  1  0.585366  0.268293  0.658537  1
  X0+  X628  1  0.642276  0.487805  0.642276  1
  X0+  X629  1  0.601626  0.487805  0.601626  1
  X0+  X630  1  0.609756  0.451220  0.536585  1
  X0+  X631  1  0.609756  0.378049  0.512195  1
  X0+  X632  1  0.634146  0.292683  0.536585  1
  X0+  X633  1  0.536585  0.390244  0.536585  1
  X0+  X634  1  0.731707  0.390244  0.646341  1
  X0+  X635  1  0.731707  0.341463  0.585366  1
  X0+  X636  1  0.731707  0.365854  0.609756  1
  X0+  X637  1  0.707317  0.390244  0.707317  1
  X0+  X638  1  0.707317  0.365854  0.536585  1
  X0+  X639  1  0.243902  0.593496  0.845528  1
  X0+  X640  1  0.243902  0.634146  0.890244  1
  X0+  X641  1  0.138211  0.601626  0.756098  1
  X0+  X642  1  0.097561  0.646341  0.756098  1
  X0+  X643  1  0.105691  0.731707  0.845528  1
  X0+  X644  1  0.146341  0.731707  0.890244  1
  X0+  X645  1  0.105691  0.601626  0.975610  1
  X0+  X646  1  0.146341  0.642276  -0.016260  1
  X0+  X647  1  0.146341  0.707317  0.951220  1
  X0+  X648  1  0.121951  0.707317  0.780488  1
  X0+  X649  1  0.012195  0.634146  0.853659  1
  X0+  X650  1  0.008130  0.601626  0.878049  1
  X0+  X651  1  0.024390  0.585366  0.902439  1
  X0+  X652  1  0.105691  0.512195  0.886179  1
  X0+  X653  1  0.146341  0.504065  0.845528  1
  X0+  X654  1  0.349593  0.601626  0.731707  1
  X0+  X655  1  0.390244  0.646341  0.731707  1
  X0+  X656  1  0.487805  0.593496  0.601626  1
  X0+  X657  1  0.487805  0.634146  0.634146  1
  X0+  X658  1  0.256098  0.609756  0.634146  1
  X0+  X659  1  0.268293  0.642276  0.593496  1
  X0+  X660  1  0.268293  0.585366  0.658537  1
  X0+  X661  1  0.372822  0.512195  0.616725  1
  X0+  X662  1  0.349593  0.642276  0.512195  1
  X0+  X663  1  0.398374  0.593496  0.512195  1
  X0+  X664  1  0.390244  0.536585  0.536585  1
  X0+  X665  1  0.292683  0.634146  0.536585  1
  X0+  X666  1  0.390244  0.731707  0.646341  1
  X0+  X667  1  0.349593  0.731707  0.601626  1
  X0+  X668  1  0.365854  0.707317  0.536585  1
  X0+  X669  1  0.097561  0.756098  0.146341  1
  X0+  X670  1  0.121951  0.756098  0.121951  1
  X0+  X671  1  0.146341  0.756098  0.097561  1
  X0+  X672  1  0.016260  0.845528  0.146341  1
  X0+  X673  1  0.000000  0.886179  0.105691  1
  X0+  X674  1  0.146341  0.890244  0.243902  1
  X0+  X675  1  0.103659  0.841463  0.237805  1
  X0+  X676  1  0.048780  0.853659  0.219512  1
  X0+  X677  1  0.097561  0.890244  0.012195  1
  X0+  X678  1  0.146341  0.853659  0.000000  1
  X0+  X679  1  0.243902  0.890244  0.146341  1
  X0+  X680  1  0.237805  0.841463  0.103659  1
  X0+  X681  1  0.146341  -0.012195  0.146341  1
  X0+  X682  1  0.097561  0.975610  0.097561  1
  X0+  X683  1  0.121951  0.975610  0.121951  1
  X0+  X684  1  0.195122  0.951220  0.146341  1
  X0+  X685  1  0.886179  0.634146  0.235772  1
  X0+  X686  1  0.902439  0.658537  0.219512  1
  X0+  X687  1  0.853659  0.609756  0.243902  1
  X0+  X688  1  0.841463  0.731707  0.097561  1
  X0+  X689  1  0.890244  0.731707  0.146341  1
  X0+  X690  1  0.853659  0.707317  0.048780  1
  X0+  X691  1  -0.016260  0.642276  0.146341  1
  X0+  X692  1  0.975610  0.585366  0.097561  1
  X0+  X693  1  0.975610  0.609756  0.121951  1
  X0+  X694  1  0.756098  0.646341  0.097561  1
  X0+  X695  1  0.756098  0.601626  0.138211  1
  X0+  X696  1  0.841463  0.512195  0.146341  1
  X0+  X697  1  0.878049  0.512195  0.121951  1
  X0+  X698  1  0.902439  0.512195  0.097561  1
  X0+  X699  1  0.780488  0.536585  0.146341  1
  X0+  X700  1  0.878049  0.536585  0.036585  1
  X0+  X701  1  0.887805  0.595122  0.009756  1
  X0+  X702  1  0.853659  0.634146  0.000000  1
  X0+  X703  1  0.951220  0.536585  0.121951  1
  X0+  X704  1  0.105691  0.886179  0.512195  1
  X0+  X705  1  0.146341  0.841463  0.512195  1
  X0+  X706  1  0.048780  0.878049  0.536585  1
  X0+  X707  1  0.105691  0.975610  0.601626  1
  X0+  X708  1  0.121951  0.951220  0.536585  1
  X0+  X709  1  0.243902  0.882927  0.629268  1
  X0+  X710  1  0.146341  0.890244  0.731707  1
  X0+  X711  1  0.195122  0.878049  0.707317  1
  X0+  X712  1  0.097561  0.829268  0.731707  1
  X0+  X713  1  0.012195  0.853659  0.634146  1
  X0+  X714  1  0.024390  0.829268  0.658537  1
  X0+  X715  1  0.000000  0.878049  0.609756  1
  X0+  X716  1  0.121951  0.756098  0.621951  1
  X0+  X717  1  0.048780  0.780488  0.634146  1
  X0+  X718  1  0.219512  0.780488  0.609756  1
  X0+  X719  1  0.731707  0.865854  0.121951  1
  X0+  X720  1  0.634146  0.890244  0.243902  1
  X0+  X721  1  0.585366  0.829268  0.243902  1
  X0+  X722  1  0.609756  0.853659  0.243902  1
  X0+  X723  1  0.597561  0.756098  0.146341  1
  X0+  X724  1  0.609756  0.780488  0.207317  1
  X0+  X725  1  0.646341  0.756098  0.097561  1
  X0+  X726  1  0.634146  0.780488  0.048780  1
  X0+  X727  1  0.609756  0.878049  0.012195  1
  X0+  X728  1  0.634146  0.853659  0.012195  1
  X0+  X729  1  0.585366  0.902439  0.024390  1
  X0+  X730  1  0.646341  0.975610  0.146341  1
  X0+  X731  1  0.601626  0.975610  0.105691  1
  X0+  X732  1  0.609756  0.951220  0.048780  1
  X0+  X733  1  0.634146  0.951220  0.195122  1
  X0+  X734  1  0.512195  0.841463  0.146341  1
  X0+  X735  1  0.512195  0.886179  0.105691  1
  X0+  X736  1  0.536585  0.951220  0.121951  1
  X0+  X737  1  0.353659  0.884146  0.262195  1
  X0+  X738  1  0.390244  0.845528  0.260163  1
  X0+  X739  1  0.365854  0.865854  0.487805  1
  X0+  X740  1  0.650407  0.642276  0.487805  1
  X0+  X741  1  0.609756  0.609756  0.487805  1
  X0+  X742  1  0.585366  0.585366  0.487805  1
  X0+  X743  1  0.597561  0.640244  0.262195  1
  X0+  X744  1  0.634146  0.609756  0.268293  1
  X0+  X745  1  0.646341  0.731707  0.390244  1
  X0+  X746  1  0.601626  0.731707  0.349593  1
  X0+  X747  1  0.707317  0.707317  0.390244  1
  X0+  X748  1  0.609756  0.707317  0.292683  1
  X0+  X749  1  0.731707  0.601626  0.349593  1
  X0+  X750  1  0.731707  0.634146  0.390244  1
  X0+  X751  1  0.707317  0.609756  0.292683  1
  X0+  X752  1  0.512195  0.616725  0.372822  1
  X0+  X753  1  0.597561  0.512195  0.390244  1
  X0+  X754  1  0.642276  0.512195  0.349593  1
  X0+  X755  1  0.536585  0.536585  0.390244  1
  X0+  X756  1  0.634146  0.536585  0.292683  1
  X0+  X757  1  0.707317  0.536585  0.365854  1
  X0+  X758  1  0.536585  0.707317  0.365854  1
  X0+  X759  1  0.365854  0.756098  0.378049  1
  X0+  X760  1  0.292683  0.780488  0.390244  1
  X0+  X761  1  0.268293  0.878049  0.365854  1
  X0+  X762  1  0.268293  0.902439  0.341463  1
  X0+  X763  1  0.292683  0.951220  0.365854  1
  X0+  X764  1  0.487805  0.890244  0.390244  1
  X0+  X765  1  0.487805  0.845528  0.349593  1
  X0+  X766  1  0.398374  -0.016260  0.390244  1
  X0+  X767  1  0.341463  0.975610  0.341463  1
  X0+  X768  1  0.365854  0.975610  0.365854  1
  X0+  X769  1  0.463415  0.951220  0.390244  1
  X0+  X770  1  0.463415  0.780488  0.365854  1
  X0+  X771  1  0.845528  0.837398  0.487805  1
  X0+  X772  1  0.878049  0.878049  0.487805  1
  X0+  X773  1  0.780488  0.853659  0.463415  1
  X0+  X774  1  0.890244  0.847561  0.262195  1
  X0+  X775  1  0.829268  0.902439  0.268293  1
  X0+  X776  1  0.853659  0.878049  0.268293  1
  X0+  X777  1  0.951220  0.853659  0.292683  1
  X0+  X778  1  0.975610  0.829268  0.341463  1
  X0+  X779  1  0.975610  0.853659  0.365854  1
  X0+  X780  1  0.975610  0.878049  0.390244  1
  X0+  X781  1  0.975610  0.902439  0.414634  1
  X0+  X782  1  0.878049  0.975610  0.378049  1
  X0+  X783  1  0.829268  0.975610  0.341463  1
  X0+  X784  1  0.951220  0.951220  0.390244  1
  X0+  X785  1  0.756098  0.841463  0.390244  1
  X0+  X786  1  0.756098  0.886179  0.349593  1
  X0+  X787  1  0.841463  0.756098  0.390244  1
  X0+  X788  1  0.886179  0.756098  0.349593  1
  X0+  X789  1  0.780488  0.780488  0.390244  1
  X0+  X790  1  0.780488  0.878049  0.292683  1
  X0+  X791  1  0.951220  0.780488  0.365854  1
  X0+  X792  1  0.780488  0.951220  0.365854  1
  X0+  X793  1  0.951220  0.878049  0.463415  1
  X0+  X794  1  0.756098  0.597561  0.646341  1
  X0+  X795  1  0.756098  0.634146  0.609756  1
  X0+  X796  1  0.890244  0.731707  0.646341  1
  X0+  X797  1  0.853659  0.731707  0.597561  1
  X0+  X798  1  0.841463  0.646341  0.512195  1
  X0+  X799  1  0.878049  0.609756  0.512195  1
  X0+  X800  1  0.902439  0.585366  0.512195  1
  X0+  X801  1  0.853659  0.707317  0.536585  1
  X0+  X802  1  0.878049  0.707317  0.707317  1
  X0+  X803  1  -0.016260  0.634146  0.642276  1
  X0+  X804  1  0.975610  0.609756  0.609756  1
  X0+  X805  1  0.975610  0.585366  0.585366  1
  X0+  X806  1  0.853659  0.512195  0.646341  1
  X0+  X807  1  0.886179  0.512195  0.593496  1
  X0+  X808  1  0.894309  0.642276  0.731707  1
  X0+  X809  1  0.845528  0.593496  0.731707  1
  X0+  X810  1  0.853659  0.536585  0.707317  1
  X0+  X811  1  0.951220  0.634146  0.707317  1
  X0+  X812  1  0.878049  0.536585  0.536585  1
  X0+  X813  1  0.593496  0.756098  0.642276  1
  X0+  X814  1  0.634146  0.756098  0.597561  1
  X0+  X815  1  0.536585  0.780488  0.634146  1
  X0+  X816  1  0.512195  0.845528  0.650407  1
  X0+  X817  1  0.512195  0.894309  0.601626  1
  X0+  X818  1  0.642276  0.894309  0.731707  1
  X0+  X819  1  0.593496  0.845528  0.731707  1
  X0+  X820  1  0.536585  0.853659  0.707317  1
  X0+  X821  1  0.536585  0.951220  0.609756  1
  X0+  X822  1  0.707317  0.878049  0.707317  1
  X0+  X823  1  0.593496  0.886179  0.512195  1
  X0+  X824  1  0.634146  0.853659  0.512195  1
  X0+  X825  1  0.658537  0.829268  0.512195  1
  X0+  X826  1  0.536585  0.878049  0.536585  1
  X0+  X827  1  0.634146  -0.012195  0.634146  1
  X0+  X828  1  0.601626  0.975610  0.593496  1
  X0+  X829  1  0.658537  0.975610  0.658537  1
  X0+  X830  1  0.731707  0.894309  0.642276  1
  X0+  X831  1  0.731707  0.845528  0.593496  1
  X0+  X832  1  0.707317  0.951220  0.634146  1
  X0+  X833  1  0.707317  0.853659  0.536585  1
  X0+  X834  1  0.707317  0.780488  0.609756  1
  X0+  X835  1  0.975610  0.841463  0.841463  1
  X0+  X836  1  0.975610  0.878049  0.878049  1
  X0+  X837  1  0.845528  0.894309  0.756098  1
  X0+  X838  1  0.878049  0.853659  0.756098  1
  X0+  X839  1  0.853659  0.951220  0.780488  1
  X0+  X840  1  0.780488  0.878049  0.780488  1
  X0+  X841  1  0.878049  0.756098  0.841463  1
  X0+  X842  1  0.845528  0.756098  0.894309  1
  X0+  X843  1  0.853659  0.780488  0.951220  1
  X0+  X844  1  0.878049  0.780488  0.780488  1
  X0+  X845  1  0.756098  0.890244  0.853659  1
  X0+  X846  1  0.756098  0.845528  0.894309  1
  X0+  X847  1  0.780488  0.853659  0.951220  1
  X0+  X848  1  0.853659  -0.012195  0.853659  1
  X0+  X849  1  0.878049  0.975610  0.878049  1
  X0+  X850  1  0.902439  0.975610  0.902439  1
  X0+  X851  1  0.878049  0.878049  -0.012195  1
  X0+  X852  1  0.853659  0.853659  0.975610  1
  X0+  X853  1  0.902439  0.902439  0.975610  1
  X0+  X854  1  0.878049  0.951220  0.951220  1
  X0+  X855  1  0.951220  0.878049  0.951220  1
  X0+  X856  1  0.756098  0.121951  0.621951  1
  X0+  X857  1  -0.012195  0.146341  0.634146  1
  X0+  X858  1  -0.018293  0.103659  0.597561  1
  X0+  X859  1  0.951220  0.048780  0.609756  1
  X0+  X860  1  0.902439  0.012195  0.585366  1
  X0+  X861  1  0.878049  0.012195  0.609756  1
  X0+  X862  1  0.853659  0.000000  0.634146  1
  X0+  X863  1  0.865854  0.121951  0.512195  1
  X0+  X864  1  0.853659  0.195122  0.536585  1
  X0+  X865  1  0.878049  0.048780  0.536585  1
  X0+  X866  1  0.845528  0.243902  0.593496  1
  X0+  X867  1  0.878049  0.243902  0.634146  1
  X0+  X868  1  0.780488  0.219512  0.609756  1
  X0+  X869  1  0.865854  0.121951  0.731707  1
  X0+  X870  1  0.853659  0.048780  0.707317  1
  X0+  X871  1  0.878049  0.219512  0.707317  1
  X0+  X872  1  0.487805  0.390244  0.890244  1
  X0+  X873  1  0.487805  0.349593  0.845528  1
  X0+  X874  1  0.463415  0.390244  0.951220  1
  X0+  X875  1  0.390244  0.487805  0.890244  1
  X0+  X876  1  0.349593  0.487805  0.845528  1
  X0+  X877  1  0.292683  0.463415  0.853659  1
  X0+  X878  1  0.357724  0.349593  0.975610  1
  X0+  X879  1  0.390244  0.390244  -0.012195  1
  X0+  X880  1  0.292683  0.365854  0.951220  1
  X0+  X881  1  0.390244  0.256098  0.853659  1
  X0+  X882  1  0.365854  0.256098  0.878049  1
  X0+  X883  1  0.341463  0.268293  0.902439  1
  X0+  X884  1  0.268293  0.398374  0.837398  1
  X0+  X885  1  0.268293  0.349593  0.886179  1
  X0+  X886  1  0.292683  0.292683  0.878049  1
  X0+  X887  1  0.378049  0.365854  0.756098  1
  X0+  X888  1  0.292683  0.390244  0.780488  1
  X0+  X889  1  0.463415  0.463415  0.878049  1
  X0+  X890  1  -0.016260  0.398374  0.390244  1
  X0+  X891  1  0.975610  0.341463  0.341463  1
  X0+  X892  1  0.975610  0.365854  0.365854  1
  X0+  X893  1  0.865854  0.365854  0.487805  1
  X0+  X894  1  0.853659  0.292683  0.463415  1
  X0+  X895  1  0.865854  0.487805  0.365854  1
  X0+  X896  1  0.853659  0.463415  0.292683  1
  X0+  X897  1  0.848780  0.385366  0.268293  1
  X0+  X898  1  0.902439  0.341463  0.268293  1
  X0+  X899  1  0.780488  0.390244  0.292683  1
  X0+  X900  1  0.756098  0.365854  0.378049  1
  X0+  X901  1  0.845528  0.260163  0.390244  1
  X0+  X902  1  0.886179  0.268293  0.349593  1
  X0+  X903  1  0.780488  0.292683  0.390244  1
  X0+  X904  1  0.878049  0.292683  0.292683  1
  X0+  X905  1  0.487805  0.117073  0.614634  1
  X0+  X906  1  0.621951  0.487805  0.121951  1
  X0+  X907  1  0.597561  0.268293  0.146341  1
  X0+  X908  1  0.634146  0.243902  0.097561  1
  X0+  X909  1  0.658537  0.268293  0.097561  1
  X0+  X910  1  0.646341  0.390244  0.243902  1
  X0+  X911  1  0.609756  0.365854  0.243902  1
  X0+  X912  1  0.512195  0.357724  0.138211  1
  X0+  X913  1  0.512195  0.390244  0.097561  1
  X0+  X914  1  0.642276  0.341463  0.016260  1
  X0+  X915  1  0.585366  0.390244  0.024390  1
  X0+  X916  1  0.609756  0.390244  0.000000  1
  X0+  X917  1  0.536585  0.390244  0.048780  1
  X0+  X918  1  0.731707  0.341463  0.097561  1
  X0+  X919  1  0.731707  0.365854  0.121951  1
  X0+  X920  1  0.731707  0.390244  0.146341  1
  X0+  X921  1  0.707317  0.390244  0.195122  1
  X0+  X922  1  0.707317  0.365854  0.048780  1
  X0+  X923  1  0.536585  0.365854  0.219512  1
  X0+  X924  1  0.390244  0.256098  0.341463  1
  X0+  X925  1  0.353659  0.262195  0.384146  1
  X0+  X926  1  0.487805  0.341463  0.341463  1
  X0+  X927  1  0.487805  0.365854  0.365854  1
  X0+  X928  1  0.487805  0.390244  0.390244  1
  X0+  X929  1  0.463415  0.365854  0.292683  1
  X0+  X930  1  0.341463  0.487805  0.341463  1
  X0+  X931  1  0.365854  0.487805  0.365854  1
  X0+  X932  1  0.390244  0.487805  0.390244  1
  X0+  X933  1  0.268293  0.398374  0.349593  1
  X0+  X934  1  0.268293  0.341463  0.402439  1
  X0+  X935  1  0.370732  0.370732  0.268293  1
  X0+  X936  1  0.292683  0.390244  0.292683  1
  X0+  X937  1  0.402439  0.390244  0.487805  1
  X0+  X938  1  0.349593  0.357724  0.487805  1
  X0+  X939  1  0.292683  0.365854  0.463415  1
  X0+  X940  1  0.365854  0.292683  0.463415  1
  X0+  X941  1  0.292683  0.463415  0.365854  1
  X0+  X942  1  0.264808  0.125436  0.620209  1
  X0+  X943  1  0.341463  0.231707  0.585366  1
  X0+  X944  1  0.365854  0.243902  0.609756  1
  X0+  X945  1  0.390244  0.243902  0.634146  1
  X0+  X946  1  0.365854  0.219512  0.536585  1
  X0+  X947  1  0.390244  0.141463  0.731707  1
  X0+  X948  1  0.341463  0.097561  0.731707  1
  X0+  X949  1  0.365854  0.048780  0.707317  1
  X0+  X950  1  0.341463  0.024390  0.658537  1
  X0+  X951  1  0.390244  0.008130  0.601626  1
  X0+  X952  1  0.373984  0.121951  0.508130  1
  X0+  X953  1  0.390244  0.048780  0.536585  1
